geometry optimzed in LAMMPS
_audit_creation_date              2020-11-30 
_audit_creation_method            'lammps2cif' 
_symmetry_space_group_name_H-M    'P1' 
_symmetry_Int_Tables_number       1 
_symmetry_cell_setting            triclinic 
loop_ 
_symmetry_equiv_pos_as_xyz 
  x,y,z 
_cell_length_a                    27.35906014 
_cell_length_b                    27.818626089936952 
_cell_length_c                    27.565825547949643 
_cell_angle_alpha                 90.29787765989225 
_cell_angle_beta                  87.49020145371972 
_cell_angle_gamma                 90.36480110439452 
loop_ 
_atom_site_label 
_atom_site_type_symbol 
_atom_site_fract_x 
_atom_site_fract_y 
_atom_site_fract_z 
_atom_site_charge 
C1          C  0.26016203  0.84891680  0.05043886     0.79200
N2          N  0.23785141  0.89242096  0.04970594    -0.79100
C3          C  0.22476182  0.91213318  0.00713122     0.81700
N4          N  0.23392631  0.88707297  0.96527947    -0.79000
C5          C  0.25666048  0.84387381  0.96538145     0.81700
N6          N  0.27088604  0.82539137  0.00798263    -0.80800
C7          C  0.87572137  0.20728849  0.04336565     0.79200
N8          N  0.88234146  0.15892281  0.04264898    -0.79100
C9          C  0.88461576  0.13384584  0.00047654     0.81700
N10         N  0.88226709  0.15802210  0.95812452    -0.79000
C11         C  0.87583987  0.20648479  0.95823489     0.81700
N12         N  0.87113622  0.23111824  0.00098865    -0.80800
C13         C  0.89587899  0.98326811  0.31159715     0.79200
N14         N  0.94398470  0.98449802  0.32056525    -0.79100
C15         C  0.96893207  0.02637043  0.32432558     0.81700
N16         N  0.94517586  0.06845976  0.31917853    -0.79000
C17         C  0.89661809  0.06947445  0.31095163     0.81700
N18         N  0.87182056  0.02631606  0.30519589    -0.80800
C19         C  0.25074920  0.97882518  0.76909984     0.79200
N20         N  0.27624676  0.02088248  0.76619798    -0.79100
C21         C  0.25110934  0.06285721  0.76785338     0.81700
N22         N  0.20147998  0.06243724  0.77160836    -0.79000
C23         C  0.17628406  0.02073690  0.77379389     0.81700
N24         N  0.20115820  0.97913363  0.77328185    -0.80800
C25         C  0.03822495  0.77078764  0.18201577     0.79200
N26         N  0.07843217  0.75853455  0.20629996    -0.79100
C27         C  0.11655400  0.73590851  0.18274943     0.81700
N28         N  0.11403215  0.72531115  0.13486635    -0.79000
C29         C  0.07422866  0.73780614  0.11003460     0.81700
N30         N  0.03626734  0.76032144  0.13389881    -0.80800
C31         C  0.02898859  0.33954214  0.82249035     0.79200
N32         N  0.07342592  0.33116005  0.79923960    -0.79100
C33         C  0.11529704  0.33544353  0.82442243     0.81700
N34         N  0.11204160  0.34438778  0.87270944    -0.79000
C35         C  0.06812999  0.35103234  0.89611519     0.81700
N36         N  0.02685718  0.34830386  0.87089316    -0.80800
C37         C  0.86369828  0.85314473  0.04184996     0.79200
N38         N  0.86213149  0.82871316  0.99930983    -0.79100
C39         C  0.87152841  0.85214748  0.95672031     0.81700
N40         N  0.88119658  0.90019814  0.95671246    -0.79000
C41         C  0.88236827  0.92503096  0.99916241     0.81700
N42         N  0.87341321  0.90113265  0.04141021    -0.80800
C43         C  0.26580921  0.18581772  0.95489000     0.79200
N44         N  0.24300128  0.14218961  0.95460617    -0.79100
C45         C  0.23439395  0.11714675  0.99646880     0.81700
N46         N  0.24820850  0.13706874  0.03891230    -0.79000
C47         C  0.27143312  0.18022623  0.03980071     0.81700
N48         N  0.28108466  0.20418405  0.99753746    -0.80800
C49         C  0.89144747  0.98390775  0.78849679     0.79200
N50         N  0.86713592  0.02574665  0.78217991    -0.79100
C51         C  0.89287725  0.06776505  0.78228930     0.81700
N52         N  0.94218414  0.06738429  0.78728179    -0.79000
C53         C  0.96609048  0.02577421  0.79326474     0.81700
N54         N  0.94044333  0.98443450  0.79371915    -0.80800
C55         C  0.25418870  0.06076344  0.27993852     0.79200
N56         N  0.20521928  0.06186285  0.29052141    -0.79100
C57         C  0.17886796  0.02071593  0.29407739     0.81700
N58         N  0.20180926  0.97826996  0.28624053    -0.79000
C59         C  0.25064836  0.97667589  0.27533296     0.81700
N60         N  0.27714904  0.01806021  0.27230737    -0.80800
C61         C  0.02885444  0.71395547  0.82925375     0.79200
N62         N  0.02740074  0.70954095  0.87835507    -0.79100
C63         C  0.06879460  0.70214400  0.90253416     0.81700
N64         N  0.11219601  0.70049384  0.87679789    -0.79000
C65         C  0.11507474  0.70653491  0.82805051     0.81700
N66         N  0.07313380  0.71456727  0.80411730    -0.80800
C67         C  0.03976080  0.28470630  0.17451942     0.79200
N68         N  0.03482590  0.29667530  0.12739607    -0.79100
C69         C  0.07418476  0.31109245  0.09945071     0.81700
N70         N  0.11857472  0.31432537  0.11929191    -0.79000
C71         C  0.12364329  0.30287369  0.16644870     0.81700
N72         N  0.08422421  0.28790728  0.19413574    -0.80800
C73         C  0.40069419  0.48004008  0.72984834     0.79200
N74         N  0.45031629  0.48078716  0.72504651    -0.79100
C75         C  0.47519123  0.52269363  0.72477043     0.81700
N76         N  0.45006590  0.56413270  0.72782121    -0.79000
C77         C  0.40045825  0.56412849  0.73210620     0.81700
N78         N  0.37528336  0.52186265  0.73362536    -0.80800
C79         C  0.39523921  0.56140184  0.22389323     0.79200
N80         N  0.44449265  0.56180311  0.21499187    -0.79100
C81         C  0.46947778  0.52030451  0.20892821     0.81700
N82         N  0.44508396  0.47813504  0.21270074    -0.79000
C83         C  0.39593802  0.47709525  0.22203358     0.81700
N84         N  0.37064935  0.51883312  0.22758354    -0.80800
C85         C  0.38921595  0.34775505  0.53526583     0.79200
N86         N  0.37571657  0.32816767  0.49233474    -0.79100
C87         C  0.38580430  0.35177265  0.44972790     0.81700
N88         N  0.40678626  0.39620088  0.45083168    -0.79000
C89         C  0.41919907  0.41686393  0.49350588     0.81700
N90         N  0.41061146  0.39193414  0.53538591    -0.80800
Zr91       Zr  0.40190883  0.31383747  0.70528809     2.17500
O92         O  0.47925091  0.35705393  0.71291520    -0.52300
O93         O  0.40252942  0.33316931  0.61844130    -0.75600
O94         O  0.47439714  0.26531570  0.68760205    -0.82300
O95         O  0.33184478  0.42898618  0.74545944    -0.84100
O96         O  0.45574302  0.18671542  0.70162403    -0.79700
O97         O  0.40460301  0.39868986  0.71677855    -0.91300
O98         O  0.33538253  0.30060694  0.58515300    -0.77300
O99         O  0.36861915  0.24335323  0.67083561    -0.86800
O100        O  0.32111900  0.33582645  0.68598957    -0.86500
O101        O  0.40606739  0.25525662  0.76850859    -0.73200
O102        O  0.36098876  0.33908230  0.78012375    -0.85400
Zr103      Zr  0.24800912  0.22949000  0.78844640     2.26400
Zr104      Zr  0.37060807  0.18454746  0.73414241     2.06300
Zr105      Zr  0.27906475  0.35926393  0.76039581     2.10000
Zr106      Zr  0.28745715  0.26503302  0.65216392     1.78800
O107        O  0.26657205  0.41623772  0.82725319    -0.94200
O108        O  0.30174497  0.19946057  0.59457290    -0.42000
O109        O  0.24405362  0.28871347  0.72596787    -0.78600
O110        O  0.28853113  0.20448787  0.71316577    -0.97300
O111        O  0.32861695  0.20839790  0.80859676    -0.90600
O112        O  0.28109669  0.30008114  0.82321368    -0.93500
C113        C  0.37532603  0.32494236  0.58230900     1.00300
C114        C  0.37675856  0.43326845  0.73050011     1.13200
C115        C  0.48550207  0.22062034  0.68810660     1.04000
O116        O  0.37800674  0.12515089  0.66904269    -0.95600
O117        O  0.32010903  0.11386983  0.75230181    -0.91400
O118        O  0.24700721  0.14418483  0.77960607    -0.84500
C119        C  0.27514443  0.10951971  0.76696561     1.10700
O120        O  0.43562267  0.32272980  0.86470426    -0.97600
Zr121      Zr  0.36236552  0.27924944  0.84209963     1.88900
O122        O  0.24958727  0.20426724  0.87322340    -0.74200
O123        O  0.41565812  0.13703143  0.79102733    -0.53500
O124        O  0.42226156  0.22491752  0.87466392    -0.98200
O125        O  0.34465785  0.34071599  0.90373148    -0.55400
O126        O  0.31682465  0.23668863  0.90642622    -0.74700
C127        C  0.27784745  0.21082425  0.90872890     0.97600
O128        O  0.16584600  0.19550837  0.78291216    -0.63600
O129        O  0.23531015  0.40843434  0.70396318    -0.58400
O130        O  0.17522194  0.27726778  0.80658778    -0.95100
O131        O  0.19306094  0.35541304  0.78883114    -0.93500
O132        O  0.23217161  0.31989853  0.61359797    -0.93800
O133        O  0.21017596  0.22801147  0.63161941    -0.92600
C134        C  0.16368218  0.32178642  0.80365978     1.16400
H135        H  0.32138376  0.36223299  0.66340183     0.32400
H136        H  0.27255313  0.17686140  0.69950020     0.43200
H137        H  0.26200952  0.30987963  0.85176333     0.36800
H138        H  0.43969235  0.24953186  0.77599905     0.33200
H139        H  0.28729622  0.21051928  0.56430049     0.25000
H140        H  0.42417665  0.10713771  0.77300895     0.31000
H141        H  0.40331339  0.20214060  0.89569175     0.36900
H142        H  0.24843352  0.35174707  0.61469787     0.31300
H143        H  0.20595490  0.38923848  0.69648515     0.30200
H144        H  0.25529706  0.44607172  0.81192352     0.31900
H145        H  0.31382424  0.33040361  0.92085185     0.30900
H146        H  0.19368871  0.22036709  0.66336637     0.34900
H147        H  0.16649712  0.17537771  0.75314663     0.27600
H148        H  0.49762717  0.35335199  0.68135853     0.31800
H149        H  0.43856075  0.31672245  0.89983203     0.34700
H150        H  0.22246930  0.43569019  0.72381741     0.27300
H151        H  0.16171782  0.17257119  0.81018367     0.40200
H152        H  0.34507921  0.12344996  0.65555116     0.30200
H153        H  0.33748358  0.19999211  0.58713383     0.37800
H154        H  0.33552771  0.36939150  0.88511584     0.29700
H155        H  0.44724199  0.15411462  0.79402528     0.29700
H156        H  0.49798814  0.33880907  0.73654414     0.30000
C157        C  0.78133208  0.35201831  0.45878834     0.79200
N158        N  0.78357420  0.32689306  0.50066669    -0.79100
C159        C  0.77452866  0.34947921  0.54392363     0.81700
N160        N  0.76470172  0.39722567  0.54525598    -0.79000
C161        C  0.76416312  0.42327067  0.50391713     0.81700
N162        N  0.77196186  0.40021087  0.46067043    -0.80800
C163        C  0.62078895  0.20942975  0.66841266     0.79200
N164        N  0.57591559  0.21381182  0.69198344    -0.79100
C165        C  0.53418768  0.20810679  0.66680270     0.81700
N166        N  0.53781225  0.20135793  0.61807574    -0.79000
C167        C  0.58199588  0.19822351  0.59412720     0.81700
N168        N  0.62325605  0.20276655  0.61951283    -0.80800
Zr169      Zr  0.89735409  0.23475655  0.78921373     2.17500
O170        O  0.97428941  0.19099102  0.77922531    -0.52300
O171        O  0.89403971  0.21806406  0.87548289    -0.75600
O172        O  0.96999228  0.28252803  0.80340692    -0.82300
O173        O  0.82493917  0.11802141  0.76537148    -0.84100
O174        O  0.95497683  0.36055389  0.78562995    -0.79700
O175        O  0.89875271  0.14971975  0.78375969    -0.91300
O176        O  0.82911831  0.25696244  0.91133629    -0.77300
O177        O  0.86544229  0.30772163  0.82171989    -0.86800
O178        O  0.81525357  0.21574275  0.81526198    -0.86500
O179        O  0.90650742  0.28906306  0.72251605    -0.73200
O180        O  0.85761346  0.20384770  0.71964698    -0.85400
Zr181      Zr  0.74948296  0.31528769  0.71135672     2.26400
Zr182      Zr  0.87216573  0.36219725  0.75468712     2.06300
Zr183      Zr  0.77430316  0.18707769  0.74547911     2.10000
Zr184      Zr  0.78276793  0.28910001  0.84636912     1.78800
O185        O  0.76662942  0.12434743  0.68434313    -0.94200
O186        O  0.78885176  0.35361687  0.90610780    -0.42000
O187        O  0.74025254  0.26035878  0.77746892    -0.78600
O188        O  0.78905970  0.34534368  0.78148374    -0.97300
O189        O  0.83163303  0.33288202  0.68514580    -0.90600
O190        O  0.78163597  0.24215846  0.67948468    -0.93500
C191        C  0.86659008  0.22977804  0.91243751     1.00300
C192        C  0.86991633  0.11444659  0.77675508     1.13200
C193        C  0.98250206  0.32687936  0.80066534     1.04000
O194        O  0.87721191  0.42418025  0.81689888    -0.95600
O195        O  0.82404151  0.43194877  0.73328878    -0.91400
O196        O  0.75212342  0.40097716  0.70815933    -0.84500
C197        C  0.78055397  0.43599344  0.71802810     1.10700
O198        O  0.93706821  0.21097723  0.63809181    -0.97600
Zr199      Zr  0.86399649  0.25930588  0.65411434     1.88900
O200        O  0.75358268  0.33486869  0.62582360    -0.74200
O201        O  0.92238315  0.40484105  0.69347407    -0.53500
O202        O  0.92572713  0.30627825  0.60863656    -0.98200
O203        O  0.84634417  0.19517638  0.59659896    -0.55400
O204        O  0.82060938  0.29841821  0.59077333    -0.74700
C205        C  0.78267951  0.32507228  0.58943942     0.97600
O206        O  0.67122963  0.35198655  0.73567395    -0.63600
O207        O  0.72169540  0.14600505  0.80579798    -0.58400
O208        O  0.67982909  0.26725787  0.68744721    -0.95100
O209        O  0.69210578  0.19028526  0.71173212    -0.93500
O210        O  0.72553987  0.23308667  0.88625485    -0.93800
O211        O  0.70798696  0.33274870  0.86811487    -0.92600
C212        C  0.66651470  0.22309676  0.69194423     1.16400
H213        H  0.81389058  0.19101000  0.83972273     0.32400
H214        H  0.77347547  0.37437481  0.79335863     0.43200
H215        H  0.76351794  0.23103192  0.65229224     0.36800
H216        H  0.94068531  0.29351628  0.71306676     0.33200
H217        H  0.77583537  0.33958661  0.93704195     0.25000
H218        H  0.93027320  0.43597917  0.70895421     0.31000
H219        H  0.92282610  0.29598424  0.57443611     0.36900
H220        H  0.72718122  0.24060233  0.92129163     0.31300
H221        H  0.71052820  0.11662842  0.78902297     0.30200
H222        H  0.74293056  0.10106028  0.69912125     0.31900
H223        H  0.81397888  0.20279034  0.58399613     0.30900
H224        H  0.68263727  0.31750558  0.84849466     0.34900
H225        H  0.65220936  0.32643713  0.75296873     0.27600
H226        H  0.99193292  0.19638037  0.80940444     0.31800
H227        H  0.94076189  0.20790935  0.60232564     0.34700
H228        H  0.74410004  0.13409929  0.83022194     0.27300
H229        H  0.67880102  0.37512448  0.76176607     0.40200
H230        H  0.85185406  0.41495878  0.84190691     0.30200
H231        H  0.82434762  0.35753596  0.91066742     0.37800
H232        H  0.84036276  0.16639016  0.61703707     0.29700
H233        H  0.95381946  0.38737323  0.69136838     0.29700
H234        H  0.99387378  0.20794468  0.75346174     0.30000
C235        C  0.38683679  0.69313513  0.54382419     0.79200
N236        N  0.40728367  0.64872926  0.54395903    -0.79100
C237        C  0.41578166  0.62350375  0.50205929     0.81700
N238        N  0.40393816  0.64400230  0.45940786    -0.79000
C239        C  0.38292817  0.68811235  0.45847092     0.81700
N240        N  0.37347349  0.71223706  0.50098333    -0.80800
Zr241      Zr  0.24831519  0.81297466  0.79544066     2.17500
O242        O  0.17221383  0.85866127  0.80173650    -0.52300
O243        O  0.24623171  0.83099477  0.88204202    -0.75600
O244        O  0.17417302  0.76383535  0.80435174    -0.82300
O245        O  0.32093520  0.92911873  0.76059512    -0.84100
O246        O  0.19484157  0.68516272  0.79667628    -0.79700
O247        O  0.24564058  0.89691898  0.77802617    -0.91300
O248        O  0.31035272  0.79578017  0.91701228    -0.77300
O249        O  0.28054178  0.74222652  0.82913105    -0.86800
O250        O  0.32862324  0.83473412  0.81823585    -0.86500
O251        O  0.24522713  0.75575363  0.73020453    -0.73200
O252        O  0.29185349  0.84092325  0.72337628    -0.85400
Zr253      Zr  0.40317951  0.73102797  0.71328560     2.26400
Zr254      Zr  0.27978672  0.68481168  0.76380699     2.06300
Zr255      Zr  0.37345209  0.85989422  0.74603222     2.10000
Zr256      Zr  0.36141294  0.76364864  0.85057541     1.78800
O257        O  0.38606446  0.91663417  0.67966859    -0.94200
O258        O  0.35085154  0.69656528  0.90662595    -0.42000
O259        O  0.40706020  0.78840155  0.77844387    -0.78600
O260        O  0.36134574  0.70450410  0.78745681    -0.97300
O261        O  0.32279439  0.71102491  0.69071027    -0.90600
O262        O  0.37205490  0.80273964  0.68082553    -0.93500
C263        C  0.27150431  0.82128251  0.91880819     1.00300
C264        C  0.27461203  0.93233754  0.76928634     1.13200
C265        C  0.16388069  0.71885056  0.80651106     1.04000
O266        O  0.26809126  0.62387677  0.82638218    -0.95600
O267        O  0.33099053  0.61460508  0.74623667    -0.91400
O268        O  0.40504514  0.64578127  0.72235687    -0.84500
C269        C  0.37648421  0.61069839  0.73333897     1.10700
O270        O  0.21800908  0.82938096  0.64311823    -0.97600
Zr271      Zr  0.29099593  0.78328805  0.65910839     1.88900
O272        O  0.40101014  0.70915570  0.62686340    -0.74200
O273        O  0.23484206  0.63972124  0.70419417    -0.53500
O274        O  0.23348146  0.73284099  0.61681384    -0.98200
O275        O  0.31135259  0.84687651  0.60080815    -0.55400
O276        O  0.33608123  0.74387457  0.59274729    -0.74700
C277        C  0.37428121  0.71746134  0.59055740     0.97600
O278        O  0.48572515  0.69780419  0.71202223    -0.63600
O279        O  0.41634465  0.90975361  0.80355104    -0.58400
O280        O  0.47646103  0.77940642  0.69894507    -0.95100
O281        O  0.45963924  0.85734855  0.71827824    -0.93500
O282        O  0.41188017  0.82188089  0.89232773    -0.93800
O283        O  0.43938319  0.72998943  0.87234873    -0.92600
C284        C  0.48839409  0.82391901  0.70234482     1.16400
H285        H  0.32781551  0.86077399  0.84153979     0.32400
H286        H  0.37673827  0.67678522  0.80102929     0.43200
H287        H  0.39198965  0.81333779  0.65314585     0.36800
H288        H  0.21201840  0.74979479  0.72118776     0.33200
H289        H  0.36017089  0.70967213  0.93841477     0.25000
H290        H  0.22380338  0.61020701  0.72147598     0.31000
H291        H  0.24508363  0.69963855  0.62161455     0.36900
H292        H  0.39044599  0.84975087  0.89972052     0.31300
H293        H  0.44447492  0.89010226  0.81282398     0.30200
H294        H  0.41065204  0.93983052  0.69115422     0.31900
H295        H  0.34294619  0.83759871  0.58465682     0.30900
H296        H  0.45294085  0.71516353  0.84195683     0.34900
H297        H  0.48798835  0.67983992  0.74274586     0.27600
H298        H  0.15515241  0.84883491  0.83258306     0.31800
H299        H  0.21591501  0.82943855  0.60735406     0.34700
H300        H  0.43115981  0.93605132  0.78368351     0.27300
H301        H  0.48709394  0.67305638  0.68602245     0.40200
H302        H  0.29978280  0.62260125  0.84233821     0.30200
H303        H  0.31500329  0.69168586  0.91028554     0.37800
H304        H  0.31934894  0.87515113  0.62098159     0.29700
H305        H  0.20452400  0.65826150  0.70023955     0.29700
H306        H  0.15156294  0.84642579  0.77570922     0.30000
C307        C  0.75822936  0.48299571  0.71348405     0.79200
N308        N  0.70931200  0.48358828  0.70700409    -0.79100
C309        C  0.68508703  0.52530025  0.70420748     0.81700
N310        N  0.71006744  0.56677428  0.70841637    -0.79000
C311        C  0.75891302  0.56712336  0.71504228     0.81700
N312        N  0.78350318  0.52497799  0.71823044    -0.80800
C313        C  0.62205717  0.83800916  0.67516853     0.79200
N314        N  0.62170461  0.84002595  0.62598471    -0.79100
C315        C  0.57890180  0.84091153  0.60314099     0.81700
N316        N  0.53631140  0.84043667  0.62985104    -0.79000
C317        C  0.53558110  0.83738729  0.67878374     0.81700
N318        N  0.57873026  0.83445994  0.70170671    -0.80800
C319        C  0.77119543  0.70345814  0.45571015     0.79200
N320        N  0.76097548  0.65535426  0.45774989    -0.79100
C321        C  0.75418809  0.63248915  0.50098551     0.81700
N322        N  0.75801833  0.65844058  0.54238466    -0.79000
C323        C  0.76886515  0.70613172  0.54104594     0.81700
N324        N  0.77633222  0.72865485  0.49760263    -0.80800
Zr325      Zr  0.75198770  0.73416735  0.71027131     2.17500
O326        O  0.67487066  0.69083178  0.72474120    -0.52300
O327        O  0.75275034  0.71768069  0.62413059    -0.75600
O328        O  0.68147598  0.78194170  0.69213446    -0.82300
O329        O  0.82628661  0.61838253  0.73333454    -0.84100
O330        O  0.69515272  0.85964396  0.71399449    -0.79700
O331        O  0.75320840  0.64893126  0.71254756    -0.91300
O332        O  0.81681916  0.75773663  0.58770838    -0.77300
O333        O  0.78312157  0.80765960  0.67853733    -0.86800
O334        O  0.83386615  0.71614989  0.68349765    -0.86500
O335        O  0.74283222  0.78842527  0.77749661    -0.73200
O336        O  0.79234147  0.70390449  0.77902220    -0.85400
Zr337      Zr  0.89928065  0.81682249  0.78904410     2.26400
Zr338      Zr  0.77728929  0.86204401  0.74621419     2.06300
Zr339      Zr  0.87578273  0.68882477  0.75277392     2.10000
Zr340      Zr  0.86507752  0.79000080  0.65248825     1.78800
O341        O  0.88453909  0.62519310  0.81204621    -0.94200
O342        O  0.85208523  0.85894627  0.60069234    -0.42000
O343        O  0.90842095  0.76286246  0.72136455    -0.78600
O344        O  0.86041630  0.84619819  0.71853729    -0.97300
O345        O  0.81721794  0.83301338  0.81555776    -0.90600
O346        O  0.86799785  0.74297810  0.82015698    -0.93500
C347        C  0.77928265  0.73001101  0.58680241     1.00300
C348        C  0.78185848  0.61409447  0.72049316     1.13200
C349        C  0.66868362  0.82601096  0.69631600     1.04000
O350        O  0.76891582  0.92808004  0.68964167    -0.95600
O351        O  0.82562504  0.93228087  0.76802860    -0.91400
O352        O  0.89677083  0.90217086  0.79449087    -0.84500
C353        C  0.86866269  0.93683052  0.78433465     1.10700
O354        O  0.71052050  0.71213444  0.86120906    -0.97600
Zr355      Zr  0.78536394  0.75867520  0.84544169     1.88900
O356        O  0.89292078  0.83871446  0.87436275    -0.74200
O357        O  0.72695603  0.90158378  0.80940582    -0.53500
O358        O  0.72553211  0.80302185  0.89580866    -0.98200
O359        O  0.80382523  0.69142625  0.89794868    -0.55400
O360        O  0.82804966  0.79842431  0.90938574    -0.74700
C361        C  0.86439616  0.82754540  0.91076316     0.97600
O362        O  0.97958643  0.85166609  0.76797026    -0.63600
O363        O  0.92831688  0.64897289  0.69155297    -0.58400
O364        O  0.96834467  0.77043354  0.81421242    -0.95100
O365        O  0.95888707  0.69481775  0.78394785    -0.93500
O366        O  0.91738712  0.73649403  0.60334384    -0.93800
O367        O  0.94158742  0.82886875  0.62604703    -0.92600
C368        C  0.98312961  0.72731280  0.80643818     1.16400
H369        H  0.83501255  0.69140837  0.65877698     0.32400
H370        H  0.87616615  0.87542749  0.70713109     0.43200
H371        H  0.88618211  0.73203659  0.84718042     0.36800
H372        H  0.70861542  0.79246963  0.78679176     0.33200
H373        H  0.86501094  0.84883714  0.56813301     0.25000
H374        H  0.71636677  0.93177441  0.79426329     0.31000
H375        H  0.72692746  0.78854536  0.92846531     0.36900
H376        H  0.94268715  0.72581203  0.62544033     0.31300
H377        H  0.94494405  0.62348682  0.70944791     0.30200
H378        H  0.91075399  0.60438265  0.79788817     0.31900
H379        H  0.83432956  0.70055570  0.91379407     0.30900
H380        H  0.96245987  0.82679210  0.65438811     0.34900
H381        H  0.99589956  0.82788773  0.74595201     0.27600
H382        H  0.65866274  0.69073526  0.69330850     0.31800
H383        H  0.71058134  0.70278082  0.89581043     0.34700
H384        H  0.90567297  0.63136783  0.67065956     0.27300
H385        H  0.97332526  0.87911984  0.74645242     0.40200
H386        H  0.78893651  0.91853194  0.66046079     0.30200
H387        H  0.81620979  0.86002453  0.59748609     0.37800
H388        H  0.81353728  0.66506651  0.87534000     0.29700
H389        H  0.69682706  0.88176529  0.81268239     0.29700
H390        H  0.65431036  0.71159580  0.74649519     0.30000
C391        C  0.52993052  0.24073470  0.31876051     0.79200
N392        N  0.53423482  0.22932881  0.36622953    -0.79100
C393        C  0.57642615  0.23910791  0.38882800     0.81700
N394        N  0.61404604  0.26008841  0.36301873    -0.79000
C395        C  0.60974646  0.27229766  0.31586877     0.81700
N396        N  0.56779245  0.26217491  0.29361810    -0.80800
Zr397      Zr  0.76717297  0.34355208  0.29140371     2.17500
O398        O  0.72402676  0.40842851  0.33507548    -0.52300
O399        O  0.68291033  0.31694975  0.30873414    -0.75600
O400        O  0.76065274  0.41820841  0.24399822    -0.82300
O401        O  0.79783993  0.28266324  0.40778490    -0.84100
O402        O  0.79458740  0.40881687  0.16776242    -0.79700
O403        O  0.78596917  0.35625992  0.37466531    -0.91300
O404        O  0.66344659  0.26683282  0.24801983    -0.77300
O405        O  0.75145132  0.30988200  0.21414001    -0.86800
O406        O  0.75460268  0.25920523  0.30689143    -0.86500
O407        O  0.84020779  0.36042247  0.24252206    -0.73200
O408        O  0.83915980  0.31222522  0.32668429    -0.85400
Zr409      Zr  0.88382170  0.21154979  0.21317402     2.26400
Zr410      Zr  0.82474199  0.32477467  0.16483765     2.06300
Zr411      Zr  0.82677255  0.22811488  0.34050420     2.10000
Zr412      Zr  0.73918834  0.22602305  0.22949398     1.78800
O413        O  0.88844758  0.22082714  0.40094379    -0.94200
O414        O  0.69799610  0.22558558  0.15290023    -0.42000
O415        O  0.81164653  0.19394039  0.26255107    -0.78600
O416        O  0.80962072  0.24037711  0.17894766    -0.97300
O417        O  0.89668052  0.29504162  0.20065710    -0.90600
O418        O  0.89977533  0.24378304  0.29113922    -0.93500
C419        C  0.65335330  0.28823685  0.28808988     1.00300
C420        C  0.78882125  0.32831682  0.41110870     1.13200
C421        C  0.77251305  0.43431487  0.20128528     1.04000
O422        O  0.76409353  0.33196093  0.10328007    -0.95600
O423        O  0.85456813  0.27471433  0.09500085    -0.91400
O424        O  0.87952880  0.20394780  0.12670420    -0.84500
C425        C  0.87039838  0.23109886  0.09091054     1.10700
O426        O  0.90475564  0.39628304  0.33438606    -0.97600
Zr427      Zr  0.91110813  0.32820121  0.27841228     1.88900
O428        O  0.96566102  0.24312540  0.19082044    -0.74200
O429        O  0.88830551  0.37017889  0.12030707    -0.53500
O430        O  0.94746616  0.39777629  0.23695741    -0.98200
O431        O  0.96646110  0.31707503  0.34442611    -0.55400
O432        O  0.98754723  0.30407900  0.24036621    -0.74700
C433        C  0.99582184  0.27538684  0.20482274     0.97600
O434        O  0.92540831  0.13930177  0.18258302    -0.63600
O435        O  0.76899941  0.17914556  0.38901003    -0.58400
O436        O  0.89091915  0.13578010  0.25787919    -0.95100
O437        O  0.85282854  0.14259586  0.33257531    -0.93500
O438        O  0.69197857  0.17086762  0.28178059    -0.93800
O439        O  0.73598173  0.14747713  0.19024998    -0.92600
C440        C  0.87667821  0.11813598  0.29929495     1.16400
H441        H  0.72862417  0.25169016  0.33048648     0.32400
H442        H  0.80004691  0.22417147  0.14987910     0.43200
H443        H  0.92805632  0.22875440  0.30414369     0.36800
H444        H  0.84673067  0.39444925  0.23988349     0.33200
H445        H  0.66412715  0.21489240  0.16139372     0.25000
H446        H  0.87409985  0.37755113  0.08879173     0.31000
H447        H  0.97894970  0.40333531  0.25254414     0.36900
H448        H  0.71661682  0.15518321  0.30156328     0.31300
H449        H  0.78588834  0.17286788  0.41935561     0.30200
H450        H  0.89925164  0.25429854  0.40690687     0.31900
H451        H  0.99387117  0.33969980  0.33717368     0.30900
H452        H  0.77025314  0.14090583  0.17925192     0.34900
H453        H  0.90149283  0.12204463  0.16269009     0.27600
H454        H  0.69701421  0.41808060  0.31450717     0.31800
H455        H  0.93758950  0.41145873  0.33383420     0.34700
H456        H  0.74189372  0.20095541  0.39901393     0.27300
H457        H  0.95097448  0.15070507  0.15880679     0.40200
H458        H  0.78256496  0.34459064  0.07434956     0.30200
H459        H  0.69485660  0.25995373  0.14448234     0.37800
H460        H  0.98105166  0.28491671  0.33910109     0.29700
H461        H  0.88979474  0.40154042  0.13732832     0.29700
H462        H  0.74677826  0.43628591  0.33477771     0.30000
C463        C  0.52652694  0.81172492  0.32722737     0.79200
N464        N  0.53124018  0.82408396  0.37437698    -0.79100
C465        C  0.57495820  0.81963035  0.39536580     0.81700
N466        N  0.61377793  0.80133243  0.36926920    -0.79000
C467        C  0.60924352  0.78865249  0.32204930     0.81700
N468        N  0.56561639  0.79381694  0.30112473    -0.80800
C469        C  0.75223394  0.48238655  0.18920262     0.79200
N470        N  0.70343623  0.48284372  0.18286091    -0.79100
C471        C  0.67886091  0.52456811  0.17959399     0.81700
N472        N  0.70320187  0.56681008  0.18309342    -0.79000
C473        C  0.75203872  0.56844183  0.18901934     0.81700
N474        N  0.77690882  0.52568923  0.19392164    -0.80800
Zr475      Zr  0.88143244  0.84350447  0.20777415     2.17500
O476        O  0.92827531  0.90713882  0.16581180    -0.52300
O477        O  0.96491015  0.81601490  0.18710180    -0.75600
O478        O  0.88760783  0.91897381  0.25543526    -0.82300
O479        O  0.84660792  0.78347048  0.09119247    -0.84100
O480        O  0.85616527  0.90754976  0.33236528    -0.79700
O481        O  0.85840844  0.85679085  0.12590821    -0.91300
O482        O  0.98323683  0.76906548  0.24952123    -0.77300
O483        O  0.89831450  0.80852449  0.28390531    -0.86800
O484        O  0.89152829  0.75920485  0.19004132    -0.86500
O485        O  0.80981666  0.85924935  0.25907698    -0.73200
O486        O  0.80767123  0.81354564  0.17360486    -0.85400
Zr487      Zr  0.76314774  0.71141552  0.28582789     2.26400
Zr488      Zr  0.82646695  0.82246055  0.33552781     2.06300
Zr489      Zr  0.81753641  0.72923288  0.15781579     2.10000
Zr490      Zr  0.90847571  0.72492966  0.26610407     1.78800
O491        O  0.75324176  0.72266829  0.09971154    -0.94200
O492        O  0.95085719  0.72125951  0.34191123    -0.42000
O493        O  0.83401801  0.69444182  0.23452283    -0.78600
O494        O  0.83920533  0.73794223  0.31934093    -0.97300
O495        O  0.75257915  0.79495266  0.30071962    -0.90600
O496        O  0.74616162  0.74504016  0.20910422    -0.93500
C497        C  0.99402917  0.78800732  0.20853049     1.00300
C498        C  0.85573441  0.82912283  0.08885370     1.13200
C499        C  0.87650770  0.93436552  0.29877650     1.04000
O500        O  0.89052406  0.82923464  0.39377005    -0.95600
O501        O  0.79529116  0.76994759  0.40369527    -0.91400
O502        O  0.76870214  0.69918808  0.37161445    -0.84500
C503        C  0.77838139  0.72633834  0.40766221     1.10700
O504        O  0.73866161  0.90585129  0.18121049    -0.97600
Zr505      Zr  0.73719767  0.82929842  0.22405941     1.88900
O506        O  0.68399097  0.74695892  0.31122806    -0.74200
O507        O  0.76846323  0.86844578  0.38599724    -0.53500
O508        O  0.69853868  0.89231732  0.27394259    -0.98200
O509        O  0.68946500  0.82415181  0.15155093    -0.55400
O510        O  0.66005839  0.79655698  0.25251778    -0.74700
C511        C  0.65280758  0.77512606  0.29284626     0.97600
O512        O  0.70933738  0.64324300  0.30561351    -0.63600
O513        O  0.87167847  0.68043018  0.10531212    -0.58400
O514        O  0.76104367  0.63384377  0.24295217    -0.95100
O515        O  0.79160276  0.64340872  0.16549408    -0.93500
O516        O  0.95471114  0.67323292  0.20940409    -0.93800
O517        O  0.91758395  0.64381811  0.29711109    -0.92600
C518        C  0.77204414  0.61741281  0.20012546     1.16400
H519        H  0.91674835  0.75183793  0.16569326     0.32400
H520        H  0.84870887  0.72086615  0.34771157     0.43200
H521        H  0.71712867  0.73071786  0.19633112     0.36800
H522        H  0.80323473  0.89309412  0.26273796     0.33200
H523        H  0.98591444  0.71808045  0.33197673     0.25000
H524        H  0.78748439  0.88010084  0.41349456     0.31000
H525        H  0.66377350  0.89212280  0.26536479     0.36900
H526        H  0.98727571  0.67017878  0.22337652     0.31300
H527        H  0.85638527  0.68035192  0.07341296     0.30200
H528        H  0.77076260  0.71700594  0.06802297     0.31900
H529        H  0.67264930  0.79256369  0.15346454     0.30900
H530        H  0.88485639  0.63541265  0.31146969     0.34900
H531        H  0.69982626  0.64706669  0.34043999     0.27600
H532        H  0.95553691  0.91535502  0.18691506     0.31800
H533        H  0.70401850  0.91558645  0.17964364     0.34700
H534        H  0.90192589  0.69972323  0.09996880     0.27300
H535        H  0.67877191  0.64972943  0.28884341     0.40200
H536        H  0.87319640  0.83861531  0.42462098     0.30200
H537        H  0.94808038  0.75409960  0.35571514     0.37800
H538        H  0.71415732  0.82053523  0.12445077     0.29700
H539        H  0.76207365  0.89761323  0.36691264     0.29700
H540        H  0.90710478  0.93589791  0.16650443     0.30000
Zr541      Zr  0.24762200  0.81557542  0.22107705     2.17500
O542        O  0.17000158  0.85078654  0.20052229    -0.52300
O543        O  0.24924022  0.83771772  0.13520122    -0.75600
O544        O  0.24270477  0.89768889  0.24941902    -0.82300
O545        O  0.19361779  0.69836568  0.19493263    -0.84100
O546        O  0.31822775  0.92361453  0.26938538    -0.79700
O547        O  0.17481904  0.76696296  0.23403346    -0.91300
O548        O  0.31475034  0.80392619  0.09532616    -0.77300
O549        O  0.32999503  0.83633654  0.19914988    -0.86800
O550        O  0.27928377  0.74765752  0.17730439    -0.86500
O551        O  0.28454333  0.83092713  0.29771714    -0.73200
O552        O  0.23740524  0.74910007  0.27604404    -0.85400
Zr553      Zr  0.39241412  0.71820413  0.28715740     2.26400
Zr554      Zr  0.36770198  0.85106706  0.27483650     2.06300
Zr555      Zr  0.27132763  0.68159491  0.23297260     2.10000
Zr556      Zr  0.36218788  0.76750256  0.15714830     1.78800
O557        O  0.21820683  0.63825467  0.29102384    -0.94200
O558        O  0.41665436  0.82555759  0.11639289    -0.42000
O559        O  0.35464957  0.70178620  0.21201662    -0.78600
O560        O  0.40276557  0.78401945  0.23094858    -0.97300
O561        O  0.35959381  0.78525028  0.33039628    -0.90600
O562        O  0.31030126  0.69527205  0.30827414    -0.93500
C563        C  0.27562220  0.82892831  0.09655493     1.00300
C564        C  0.16369917  0.73254815  0.20585073     1.13200
C565        C  0.27246564  0.93016273  0.26331437     1.04000
O566        O  0.41897726  0.90072120  0.22054024    -0.95600
O567        O  0.44769707  0.84101224  0.30979660    -0.91400
O568        O  0.46735354  0.76303956  0.29517591    -0.84500
C569        C  0.47763370  0.80558771  0.30902040     1.10700
O570        O  0.19492645  0.79428044  0.36870796    -0.97600
Zr571      Zr  0.27704968  0.76325873  0.35068672     1.88900
O572        O  0.38979799  0.69405735  0.37262210    -0.74200
O573        O  0.37851590  0.90346268  0.34476428    -0.53500
O574        O  0.27476047  0.82259865  0.41611327    -0.98200
O575        O  0.22951351  0.69775048  0.38836714    -0.55400
O576        O  0.32942461  0.73500203  0.41328047    -0.74700
C577        C  0.36663908  0.70726662  0.41195892     0.97600
O578        O  0.46469823  0.66930744  0.29804358    -0.63600
O579        O  0.25789596  0.61830569  0.17350951    -0.58400
O580        O  0.39997370  0.64077461  0.24866599    -0.95100
O581        O  0.32486466  0.61139307  0.23191135    -0.93500
O582        O  0.35365212  0.70517695  0.09558695    -0.93800
O583        O  0.43974871  0.73035052  0.13232326    -0.92600
C584        C  0.37132682  0.60708762  0.23549460     1.16400
H585        H  0.26152626  0.74140371  0.14837869     0.32400
H586        H  0.43654015  0.79058665  0.22140243     0.43200
H587        H  0.30939804  0.66653064  0.32784330     0.36800
H588        H  0.26924513  0.85620932  0.31691093     0.33200
H589        H  0.41488755  0.81783327  0.08139330     0.25000
H590        H  0.38490729  0.93595701  0.33132504     0.31000
H591        H  0.26823302  0.80383665  0.44616815     0.36900
H592        H  0.32258187  0.68845277  0.10467688     0.31300
H593        H  0.22418405  0.60654831  0.18093789     0.30200
H594        H  0.18880431  0.65868344  0.29530016     0.31900
H595        H  0.21928673  0.70990715  0.42103474     0.30900
H596        H  0.44650646  0.70790452  0.15895091     0.34900
H597        H  0.48907003  0.67912406  0.27228283     0.27600
H598        H  0.17849349  0.88137158  0.18392836     0.31800
H599        H  0.18716373  0.78753014  0.40342295     0.34700
H600        H  0.25609785  0.63520358  0.14213151     0.27300
H601        H  0.47865918  0.67988849  0.32892359     0.40200
H602        H  0.44220260  0.91684652  0.24195739     0.30200
H603        H  0.39965477  0.85673542  0.12036043     0.37800
H604        H  0.25345817  0.67232031  0.39488621     0.29700
H605        H  0.34566227  0.90548245  0.36118570     0.29700
H606        H  0.15429893  0.86028855  0.23213052     0.30000
Zr607      Zr  0.39927801  0.31775827  0.27772874     2.17500
O608        O  0.47536225  0.35930779  0.29574006    -0.52300
O609        O  0.39738712  0.34030201  0.36430765    -0.75600
O610        O  0.40215877  0.39908029  0.24844537    -0.82300
O611        O  0.45272985  0.20297410  0.30826421    -0.84100
O612        O  0.32842830  0.42269759  0.22255204    -0.79700
O613        O  0.47211204  0.27025962  0.26739496    -0.91300
O614        O  0.33108857  0.30642904  0.40308520    -0.77300
O615        O  0.31627916  0.33821060  0.29545916    -0.86800
O616        O  0.36665858  0.25080607  0.32242524    -0.86500
O617        O  0.36564168  0.32926607  0.19889031    -0.73200
O618        O  0.41197942  0.24910851  0.22505409    -0.85400
Zr619      Zr  0.25809003  0.21431694  0.20995381     2.26400
Zr620      Zr  0.28142351  0.34805185  0.21761338     2.06300
Zr621      Zr  0.37677145  0.18269095  0.26885402     2.10000
Zr622      Zr  0.28349358  0.27094220  0.33942468     1.78800
O623        O  0.42835868  0.13638795  0.21179074    -0.94200
O624        O  0.23235184  0.33416061  0.37568122    -0.42000
O625        O  0.29270363  0.20222071  0.28731958    -0.78600
O626        O  0.24603768  0.28251734  0.26332021    -0.97300
O627        O  0.29190760  0.27990674  0.16497956    -0.90600
O628        O  0.34091871  0.19199460  0.19137108    -0.93500
C629        C  0.37061796  0.33139883  0.40282823     1.00300
C630        C  0.48264587  0.23706536  0.29669059     1.13200
C631        C  0.37331025  0.43047930  0.23203903     1.04000
O632        O  0.22730529  0.40212547  0.26381102    -0.95600
O633        O  0.20204774  0.33338706  0.18288301    -0.91400
O634        O  0.18261196  0.25539555  0.19879703    -0.84500
C635        C  0.17237272  0.29742261  0.18422568     1.10700
O636        O  0.45717648  0.29063152  0.12930755    -0.97600
Zr637      Zr  0.37525870  0.25943849  0.14847280     1.88900
O638        O  0.26234992  0.18869164  0.12495755    -0.74200
O639        O  0.27098035  0.39385214  0.14370614    -0.53500
O640        O  0.37548859  0.31781455  0.08300165    -0.98200
O641        O  0.42922986  0.20025846  0.10888934    -0.55400
O642        O  0.32654312  0.22545949  0.08540373    -0.74700
C643        C  0.28775158  0.19948887  0.08622821     0.97600
O644        O  0.18054789  0.17252066  0.19821152    -0.63600
O645        O  0.39594690  0.12130008  0.32781886    -0.58400
O646        O  0.25148673  0.13711926  0.24847082    -0.95100
O647        O  0.32407708  0.11193589  0.27547903    -0.93500
O648        O  0.28390986  0.20922180  0.40175826    -0.93800
O649        O  0.20163368  0.24254583  0.36345981    -0.92600
C650        C  0.27865363  0.10583282  0.26741347     1.16400
H651        H  0.38334954  0.24552589  0.35205318     0.32400
H652        H  0.21196226  0.28871296  0.27149303     0.43200
H653        H  0.34280249  0.16267615  0.17241464     0.36800
H654        H  0.38153756  0.35426670  0.17976762     0.33200
H655        H  0.23426708  0.32975113  0.41117275     0.25000
H656        H  0.25554337  0.42429303  0.15488343     0.31000
H657        H  0.34123751  0.32898852  0.08251491     0.36900
H658        H  0.28496887  0.17838192  0.38365251     0.31300
H659        H  0.42918096  0.11003584  0.31789805     0.30200
H660        H  0.46104503  0.15171036  0.21302033     0.31900
H661        H  0.43208182  0.21047014  0.07449423     0.30900
H662        H  0.19669665  0.21356445  0.34320016     0.34900
H663        H  0.18894858  0.14105012  0.18318826     0.27600
H664        H  0.46575788  0.38900711  0.31358463     0.31800
H665        H  0.46640887  0.30794019  0.15905816     0.34700
H666        H  0.40001862  0.13887795  0.35872623     0.27300
H667        H  0.16650483  0.16487644  0.23102848     0.40200
H668        H  0.20209802  0.38087560  0.27934020     0.30200
H669        H  0.25055519  0.36440724  0.36879728     0.37800
H670        H  0.40985588  0.17012199  0.10824532     0.29700
H671        H  0.30445932  0.40316670  0.13215417     0.29700
H672        H  0.48950243  0.37057028  0.26408460     0.30000
C673        C  0.57748362  0.82710101  0.44800271    -0.04700
C674        C  0.54198802  0.80366616  0.47745047    -0.18300
C675        C  0.54274758  0.80605065  0.52780680     0.10100
C676        C  0.57841403  0.83494145  0.54993329    -0.07100
C677        C  0.61465561  0.85777181  0.52048941    -0.18300
C678        C  0.61467859  0.85409780  0.46976926     0.10100
S679        S  0.49963893  0.76784981  0.56098750    -0.33300
S680        S  0.66206774  0.88590564  0.43543487    -0.33300
H681        H  0.63532335  0.89324549  0.39378789     0.28100
H682        H  0.53356243  0.75234495  0.59442812     0.28100
H683        H  0.51451946  0.78135332  0.46100152     0.18700
H684        H  0.64262233  0.87931114  0.53705244     0.18700
C685        C  0.58475211  0.20145734  0.54042416    -0.07100
C686        C  0.61915770  0.23340141  0.51906577    -0.18300
C687        C  0.61720981  0.24700810  0.47045335     0.10100
C688        C  0.58110823  0.22656643  0.44094305    -0.07100
C689        C  0.54818223  0.19273268  0.46196577    -0.18300
C690        C  0.54957293  0.18001147  0.51094856     0.10100
S691        S  0.65925433  0.29386794  0.45070163    -0.33300
S692        S  0.50560128  0.13588354  0.53318489    -0.33300
H693        H  0.53493183  0.11751724  0.56931246     0.28100
H694        H  0.62247084  0.32255751  0.43179144     0.28100
H695        H  0.64573548  0.25091283  0.54136032     0.18700
H696        H  0.52084205  0.17585566  0.44014346     0.18700
C697        C  0.75787964  0.47664589  0.50597162    -0.07100
C698        C  0.73403456  0.49977611  0.46848226    -0.18300
C699        C  0.72927002  0.55008359  0.46735910     0.10100
C700        C  0.75033893  0.57887685  0.50358063    -0.07100
C701        C  0.77264111  0.55558789  0.54192511    -0.18300
C702        C  0.77679499  0.50547007  0.54346282     0.10100
S703        S  0.69440679  0.57485662  0.41963848    -0.33300
S704        S  0.81149051  0.48129548  0.59153627    -0.33300
H705        H  0.76981283  0.45961320  0.61383947     0.28100
H706        H  0.67506081  0.61323405  0.44767319     0.28100
H707        H  0.71847620  0.47842815  0.43993456     0.18700
H708        H  0.78920693  0.57667246  0.57008804     0.18700
C709        C  0.43270425  0.46914554  0.49596111    -0.07100
C710        C  0.42914882  0.49271005  0.54131811    -0.18300
C711        C  0.42935998  0.54298143  0.54519572     0.10100
C712        C  0.43026447  0.57146837  0.50252453    -0.07100
C713        C  0.43964015  0.54789821  0.45771383    -0.18300
C714        C  0.44266030  0.49766602  0.45422103     0.10100
S715        S  0.42707332  0.56738306  0.60586201    -0.33300
S716        S  0.46018387  0.47278198  0.39555019    -0.33300
H717        H  0.48774714  0.43527203  0.41459458     0.28100
H718        H  0.46543672  0.60033772  0.59593102     0.28100
H719        H  0.42441223  0.47199946  0.57438576     0.18700
H720        H  0.44388609  0.56864710  0.42463126     0.18700
C721        C  0.52311642  0.52084261  0.20194448    -0.07100
C722        C  0.54515342  0.49331549  0.16423167    -0.18300
C723        C  0.59590098  0.49472028  0.15484349     0.10100
C724        C  0.62515726  0.52417534  0.18384394    -0.07100
C725        C  0.60311052  0.55083807  0.22201366    -0.18300
C726        C  0.55281870  0.54866491  0.23201253     0.10100
S727        S  0.62093539  0.45932439  0.10484361    -0.33300
S728        S  0.52969618  0.57916658  0.28596366    -0.33300
H729        H  0.49290793  0.54518103  0.29793459     0.28100
H730        H  0.65969232  0.49110026  0.09265002     0.28100
H731        H  0.52261273  0.47141538  0.14134691     0.18700
H732        H  0.62559854  0.57181579  0.24581387     0.18700
C733        C  0.52893024  0.52328506  0.72002010    -0.07100
C734        C  0.55248353  0.49142831  0.68705494    -0.18300
C735        C  0.60335410  0.49244736  0.67925450     0.10100
C736        C  0.63134742  0.52574792  0.70536547    -0.07100
C737        C  0.60765455  0.55770046  0.73797441    -0.18300
C738        C  0.55714603  0.55613248  0.74639825     0.10100
S739        S  0.63000661  0.45160917  0.63457378    -0.33300
S740        S  0.53175084  0.59434955  0.79406424    -0.33300
H741        H  0.49703596  0.56039442  0.81156187     0.28100
H742        H  0.66836098  0.48261273  0.61908169     0.28100
H743        H  0.53103371  0.46634346  0.66640760     0.18700
H744        H  0.62893313  0.58243071  0.75921483     0.18700
C745        C  0.06489742  0.34810035  0.94928933    -0.07100
C746        C  0.03243846  0.31391357  0.96999834    -0.18300
C747        C  0.03520963  0.30021476  0.01835993     0.10100
C748        C  0.06930003  0.32333967  0.04791547    -0.07100
C749        C  0.10049195  0.35889216  0.02752107    -0.18300
C750        C  0.09899721  0.37118185  0.97859775     0.10100
S751        S  0.99805076  0.24952281  0.03790527    -0.33300
S752        S  0.14220650  0.41576182  0.95574463    -0.33300
H753        H  0.11357194  0.43198461  0.91806342     0.28100
H754        H  0.03525910  0.22732317  0.06325182     0.28100
H755        H  0.00745096  0.29462657  0.94729742     0.18700
H756        H  0.12667537  0.37705003  0.04975321     0.18700
C757        C  0.07289598  0.72812261  0.05714860    -0.07100
C758        C  0.02871799  0.71357343  0.03719585    -0.18300
C759        C  0.02633716  0.70175684  0.98772574     0.10100
C760        C  0.06884411  0.70619270  0.95658367    -0.07100
C761        C  0.11291999  0.72032383  0.97714267    -0.18300
C762        C  0.11527281  0.73186421  0.02624180     0.10100
S763        S  0.96859655  0.67924959  0.96775689    -0.33300
S764        S  0.17302094  0.75459378  0.04594651    -0.33300
H765        H  0.15218464  0.79167233  0.07482138     0.28100
H766        H  0.98973777  0.64436914  0.93633630     0.28100
H767        H  0.99604628  0.70997400  0.06061762     0.18700
H768        H  0.14592577  0.72489365  0.95443746     0.18700
C769        C  0.01993529  0.02407815  0.79210969    -0.07100
C770        C  0.04267304  0.98728192  0.76455653    -0.18300
C771        C  0.09331277  0.98569181  0.75718082     0.10100
C772        C  0.12255660  0.02099208  0.77906122    -0.07100
C773        C  0.09997841  0.05717962  0.80766153    -0.18300
C774        C  0.04914993  0.05888324  0.81476794     0.10100
S775        S  0.11751111  0.93962082  0.71672440    -0.33300
S776        S  0.02444287  0.10474052  0.85496479    -0.33300
H777        H  0.98401065  0.07725704  0.87126470     0.28100
H778        H  0.15302281  0.96948914  0.69366169     0.28100
H779        H  0.02066351  0.96067555  0.74651541     0.18700
H780        H  0.12215646  0.08378014  0.82553292     0.18700
C781        C  0.02287737  0.02494121  0.32095617    -0.07100
C782        C  0.04394676  0.99164549  0.28805646    -0.18300
C783        C  0.09398359  0.99124466  0.27716174     0.10100
C784        C  0.12515622  0.02237785  0.30222597    -0.07100
C785        C  0.10434052  0.05598185  0.33524180    -0.18300
C786        C  0.05350957  0.05792020  0.34452571     0.10100
S787        S  0.11429483  0.95436576  0.22654694    -0.33300
S788        S  0.03032007  0.10256794  0.38701561    -0.33300
H789        H  0.99061613  0.07460344  0.40501524     0.28100
H790        H  0.14904533  0.98783534  0.20825843     0.28100
H791        H  0.02081332  0.96770725  0.26784391     0.18700
H792        H  0.12780377  0.08063358  0.35416233     0.18700
C793        C  0.88697965  0.97839742  0.99987529    -0.07100
C794        C  0.85992382  0.00361117  0.03616745    -0.18300
C795        C  0.85771671  0.05376815  0.03657206     0.10100
C796        C  0.88491451  0.08046575  0.00101371    -0.07100
C797        C  0.91250547  0.05548808  0.96504773    -0.18300
C798        C  0.91433533  0.00503541  0.96429401     0.10100
S799        S  0.81571980  0.08085783  0.08082287    -0.33300
S800        S  0.95392838  0.97727794  0.91843492    -0.33300
H801        H  0.96903859  0.93991947  0.94842988     0.28100
H802        H  0.79647382  0.11336302  0.04775694     0.28100
H803        H  0.83796374  0.98403846  0.06322342     0.18700
H804        H  0.93354867  0.07561329  0.93794433     0.18700
C805        C  0.21097545  0.96405881  0.00442601    -0.07100
C806        C  0.21376442  0.98653756  0.95869803    -0.18300
C807        C  0.21612734  0.03678915  0.95408304     0.10100
C808        C  0.21719542  0.06583782  0.99645710    -0.07100
C809        C  0.20714195  0.04354228  0.04162862    -0.18300
C810        C  0.20297277  0.99354796  0.04596546     0.10100
S811        S  0.22005856  0.06176629  0.89369310    -0.33300
S812        S  0.18833724  0.97030210  0.10575969    -0.33300
H813        H  0.15936277  0.93216673  0.08907335     0.28100
H814        H  0.20805158  0.01930565  0.86903825     0.28100
H815        H  0.21737741  0.96470201  0.92616958     0.18700
H816        H  0.20416847  0.06506198  0.07448300     0.18700
loop_ 
_geom_bond_atom_site_label_1 
_geom_bond_atom_site_label_2 
_geom_bond_distance 
_geom_bond_site_symmetry_2 
_ccdc_geom_bond_type 
C1            N2   1.360       .  A
C1            N6   1.360       .  A
C1          C563   1.470       .  S
N2            C3   1.361       .  A
C3            N4   1.360   1_554  A
C3          C805   1.498       .  S
N4            C5   1.357       .  A
C5            N6   1.358   1_556  A
C5          C263   1.469       .  S
C7            N8   1.359       .  A
C7           N12   1.357       .  A
C7          C425   1.467       .  S
N8            C9   1.352       .  A
C9           N10   1.355   1_554  A
C9          C796   1.485       .  S
N10          C11   1.361       .  A
C11          N12   1.362   1_556  A
C11         C191   1.455       .  S
C13          N14   1.350       .  A
C13          N18   1.386   1_565  A
C13         C499   1.503       .  S
N14          C15   1.352   1_565  A
C15          N16   1.354       .  A
C15         C781   1.476   1_655  S
N16          C17   1.358       .  A
C17          N18   1.387       .  A
C17         C440   1.504       .  S
C19          N20   1.359   1_565  A
C19          N24   1.357       .  A
C19         C264   1.453       .  S
N20          C21   1.358       .  A
C21          N22   1.357       .  A
C21         C119   1.451       .  S
N22          C23   1.346       .  A
C23          N24   1.346   1_545  A
C23         C772   1.471       .  S
C25          N26   1.359       .  A
C25          N30   1.360       .  A
C25         C497   1.467   1_455  S
N26          C27   1.360       .  A
C27          N28   1.356       .  A
C27         C564   1.467       .  S
N28          C29   1.359       .  A
C29          N30   1.359       .  A
C29         C757   1.483       .  S
C31          N32   1.370       .  A
C31          N36   1.354       .  A
C31         C193   1.471   1_455  S
N32          C33   1.369       .  A
C33          N34   1.352       .  A
C33         C134   1.470       .  S
N34          C35   1.352       .  A
C35          N36   1.353       .  A
C35         C745   1.467       .  S
C37          N38   1.354   1_554  A
C37          N42   1.360       .  A
C37         C498   1.468       .  S
N38          C39   1.360       .  A
C39          N40   1.361       .  A
C39         C361   1.457       .  S
N40          C41   1.357       .  A
C41          N42   1.356   1_556  A
C41         C793   1.489       .  S
C43          N44   1.361       .  A
C43          N48   1.361       .  A
C43         C127   1.477       .  S
N44          C45   1.362       .  A
C45          N46   1.359   1_556  A
C45         C808   1.500       .  S
N46          C47   1.355       .  A
C47          N48   1.360   1_554  A
C47         C643   1.471       .  S
C49          N50   1.360   1_565  A
C49          N54   1.354       .  A
C49         C353   1.453       .  S
N50          C51   1.361       .  A
C51          N52   1.362       .  A
C51         C192   1.458       .  S
N52          C53   1.348       .  A
C53          N54   1.343   1_545  A
C53         C769   1.473   1_655  S
C55          N56   1.359       .  A
C55          N60   1.358       .  A
C55         C650   1.454       .  S
N56          C57   1.351       .  A
C57          N58   1.353   1_545  A
C57         C784   1.478       .  S
N58          C59   1.358       .  A
C59          N60   1.358   1_565  A
C59         C565   1.459       .  S
C61          N62   1.359       .  A
C61          N66   1.369       .  A
C61         C368   1.475   1_455  S
N62          C63   1.356       .  A
C63          N64   1.357       .  A
C63         C760   1.494       .  S
N64          C65   1.354       .  A
C65          N66   1.369       .  A
C65         C265   1.476       .  S
C67          N68   1.355       .  A
C67          N72   1.355       .  A
C67         C433   1.456   1_455  S
N68          C69   1.356       .  A
C69          N70   1.356       .  A
C69         C748   1.475       .  S
N70          C71   1.353       .  A
C71          N72   1.358       .  A
C71         C635   1.450       .  S
C73          N74   1.358       .  A
C73          N78   1.360       .  A
C73         C114   1.453       .  S
N74          C75   1.346       .  A
C75          N76   1.346       .  A
C75         C733   1.470       .  S
N76          C77   1.357       .  A
C77          N78   1.359       .  A
C77         C269   1.455       .  S
C79          N80   1.359       .  A
C79          N84   1.360       .  A
C79         C584   1.461       .  S
N80          C81   1.351       .  A
C81          N82   1.348       .  A
C81         C721   1.472       .  S
N82          C83   1.358       .  A
C83          N84   1.360       .  A
C83         C631   1.456       .  S
C85          N86   1.365       .  A
C85          N90   1.358       .  A
C85         C113   1.480       .  S
N86          C87   1.365       .  A
C87          N88   1.360       .  A
C87         C629   1.484       .  S
N88          C89   1.362       .  A
C89          N90   1.361       .  A
C89         C709   1.500       .  S
Zr91         O92   2.444       .  S
Zr91         O93   2.456       .  S
Zr91         O94   2.436       .  S
Zr91         O97   2.381       .  S
Zr91         O99   2.368       .  S
Zr91        O100   2.380       .  S
Zr91        O101   2.399       .  S
Zr91        O102   2.407       .  S
O92         H148   0.991       .  S
O92         H156   0.990       .  S
O93         C113   1.288       .  A
O94         C115   1.282       .  A
O95        Zr105   2.437       .  S
O95         C114   1.284       .  A
O96        Zr104   2.459       .  S
O96         C115   1.288       .  A
O97         C114   1.276       .  A
O98        Zr106   2.429       .  S
O98         C113   1.282       .  A
O99        Zr104   2.401       .  S
O99        Zr106   2.383       .  S
O100       Zr105   2.397       .  S
O100       Zr106   2.373       .  S
O100        H135   0.965       .  S
O101       Zr104   2.397       .  S
O101       Zr121   2.403       .  S
O101        H138   0.966       .  S
O102       Zr105   2.400       .  S
O102       Zr121   2.393       .  S
Zr103       O128   2.444       .  S
Zr103       O122   2.446       .  S
Zr103       O130   2.433       .  S
Zr103       O118   2.384       .  S
Zr103       O109   2.396       .  S
Zr103       O110   2.411       .  S
Zr103       O111   2.376       .  S
Zr103       O112   2.372       .  S
Zr104       O123   2.437       .  S
Zr104       O116   2.436       .  S
Zr104       O117   2.437       .  S
Zr104       O110   2.412       .  S
Zr104       O111   2.400       .  S
Zr105       O107   2.439       .  S
Zr105       O129   2.435       .  S
Zr105       O131   2.449       .  S
Zr105       O109   2.389       .  S
Zr105       O112   2.398       .  S
Zr106       O132   2.436       .  S
Zr106       O133   2.434       .  S
Zr106       O108   2.434       .  S
Zr106       O109   2.402       .  S
Zr106       O110   2.387       .  S
O107        H144   0.990       .  S
O108        H139   0.990       .  S
O108        H153   0.990       .  S
O110        H136   0.965       .  S
O111       Zr121   2.371       .  S
O112       Zr121   2.381       .  S
O112        H137   0.964       .  S
C115        C165   1.475       .  S
O116        H152   0.990       .  S
O117        C119   1.283       .  A
O118        C119   1.275       .  A
O120       Zr121   2.437       .  S
O120        H149   0.990       .  S
Zr121       O124   2.439       .  S
Zr121       O125   2.440       .  S
Zr121       O126   2.431       .  S
O122        C127   1.285       .  A
O123        H140   0.990       .  S
O123        H155   0.990       .  S
O124        H141   0.990       .  S
O125        H145   0.990       .  S
O125        H154   0.990       .  S
O126        C127   1.282       .  A
O128        H147   0.991       .  S
O128        H151   0.991       .  S
O129        H143   0.990       .  S
O129        H150   0.990       .  S
O130        C134   1.284       .  A
O131        C134   1.286       .  A
O132        H142   0.990       .  S
O133        H146   0.990       .  S
C157        N158   1.357       .  A
C157        N162   1.367       .  A
C157        C420   1.474       .  S
N158        C159   1.359       .  A
C159        N160   1.357       .  A
C159        C205   1.456       .  S
N160        C161   1.354       .  A
C161        N162   1.360       .  A
C161        C697   1.496       .  S
C163        N164   1.369       .  A
C163        N168   1.358       .  A
C163        C212   1.481       .  S
N164        C165   1.370       .  A
C165        N166   1.355       .  A
N166        C167   1.355       .  A
C167        N168   1.359       .  A
C167        C685   1.482       .  S
Zr169       O170   2.443       .  S
Zr169       O171   2.423       .  S
Zr169       O172   2.429       .  S
Zr169       O175   2.370       .  S
Zr169       O177   2.371       .  S
Zr169       O178   2.385       .  S
Zr169       O179   2.389       .  S
Zr169       O180   2.398       .  S
O170        H226   0.990       .  S
O170        H234   0.990       .  S
O171        C191   1.281       .  A
O172        C193   1.280       .  A
O173       Zr183   2.454       .  S
O173        C192   1.288       .  A
O174       Zr182   2.456       .  S
O174        C193   1.287       .  A
O175        C192   1.274       .  A
O176       Zr184   2.418       .  S
O176        C191   1.279       .  A
O177       Zr182   2.396       .  S
O177       Zr184   2.388       .  S
O178       Zr183   2.399       .  S
O178       Zr184   2.372       .  S
O178        H213   0.965       .  S
O179       Zr182   2.396       .  S
O179       Zr199   2.399       .  S
O179        H216   0.967       .  S
O180       Zr183   2.402       .  S
O180       Zr199   2.382       .  S
Zr181       O206   2.443       .  S
Zr181       O200   2.420       .  S
Zr181       O208   2.433       .  S
Zr181       O196   2.386       .  S
Zr181       O187   2.388       .  S
Zr181       O188   2.401       .  S
Zr181       O189   2.379       .  S
Zr181       O190   2.371       .  S
Zr182       O201   2.437       .  S
Zr182       O194   2.433       .  S
Zr182       O195   2.441       .  S
Zr182       O188   2.404       .  S
Zr182       O189   2.393       .  S
Zr183       O185   2.434       .  S
Zr183       O207   2.435       .  S
Zr183       O209   2.473       .  S
Zr183       O187   2.395       .  S
Zr183       O190   2.386       .  S
Zr184       O210   2.434       .  S
Zr184       O211   2.436       .  S
Zr184       O186   2.439       .  S
Zr184       O187   2.401       .  S
Zr184       O188   2.382       .  S
O185        H222   0.990       .  S
O186        H217   0.991       .  S
O186        H231   0.990       .  S
O188        H214   0.965       .  S
O189       Zr199   2.376       .  S
O190       Zr199   2.376       .  S
O190        H215   0.965       .  S
O194        H230   0.990       .  S
O195        C197   1.285       .  A
O196        C197   1.278       .  A
C197        C307   1.455       .  S
O198       Zr199   2.439       .  S
O198        H227   0.990       .  S
Zr199       O202   2.436       .  S
Zr199       O203   2.441       .  S
Zr199       O204   2.421       .  S
O200        C205   1.282       .  A
O201        H218   0.990       .  S
O201        H233   0.990       .  S
O202        H219   0.990       .  S
O203        H223   0.990       .  S
O203        H232   0.990       .  S
O204        C205   1.281       .  A
O206        H225   0.990       .  S
O206        H229   0.990       .  S
O207        H221   0.990       .  S
O207        H228   0.990       .  S
O208        C212   1.284       .  A
O209        C212   1.291       .  A
O210        H220   0.990       .  S
O211        H224   0.990       .  S
C235        N236   1.359       .  A
C235        N240   1.363       .  A
C235        C277   1.480       .  S
N236        C237   1.360       .  A
C237        N238   1.362       .  A
C237        C712   1.504       .  S
N238        C239   1.359       .  A
C239        N240   1.363       .  A
C239        C577   1.479       .  S
Zr241       O242   2.445       .  S
Zr241       O243   2.435       .  S
Zr241       O244   2.443       .  S
Zr241       O247   2.389       .  S
Zr241       O249   2.372       .  S
Zr241       O250   2.385       .  S
Zr241       O251   2.399       .  S
Zr241       O252   2.401       .  S
O242        H298   0.991       .  S
O242        H306   0.990       .  S
O243        C263   1.283       .  A
O244        C265   1.282       .  A
O245       Zr255   2.431       .  S
O245        C264   1.283       .  A
O246       Zr254   2.457       .  S
O246        C265   1.287       .  A
O247        C264   1.278       .  A
O248       Zr256   2.425       .  S
O248        C263   1.281       .  A
O249       Zr254   2.401       .  S
O249       Zr256   2.386       .  S
O250       Zr255   2.397       .  S
O250       Zr256   2.371       .  S
O250        H285   0.965       .  S
O251       Zr254   2.401       .  S
O251       Zr271   2.405       .  S
O251        H288   0.965       .  S
O252       Zr255   2.399       .  S
O252       Zr271   2.384       .  S
Zr253       O278   2.444       .  S
Zr253       O272   2.459       .  S
Zr253       O280   2.427       .  S
Zr253       O268   2.387       .  S
Zr253       O259   2.402       .  S
Zr253       O260   2.416       .  S
Zr253       O261   2.374       .  S
Zr253       O262   2.369       .  S
Zr254       O273   2.433       .  S
Zr254       O266   2.434       .  S
Zr254       O267   2.445       .  S
Zr254       O260   2.411       .  S
Zr254       O261   2.403       .  S
Zr255       O257   2.434       .  S
Zr255       O279   2.436       .  S
Zr255       O281   2.448       .  S
Zr255       O259   2.390       .  S
Zr255       O262   2.395       .  S
Zr256       O282   2.439       .  S
Zr256       O283   2.435       .  S
Zr256       O258   2.437       .  S
Zr256       O259   2.403       .  S
Zr256       O260   2.388       .  S
O257        H294   0.990       .  S
O258        H289   0.990       .  S
O258        H303   0.990       .  S
O260        H286   0.966       .  S
O261       Zr271   2.380       .  S
O262       Zr271   2.381       .  S
O262        H287   0.965       .  S
O266        H302   0.990       .  S
O267        C269   1.285       .  A
O268        C269   1.276       .  A
O270       Zr271   2.438       .  S
O270        H299   0.990       .  S
Zr271       O274   2.433       .  S
Zr271       O275   2.441       .  S
Zr271       O276   2.423       .  S
O272        C277   1.288       .  A
O273        H290   0.990       .  S
O273        H305   0.990       .  S
O274        H291   0.990       .  S
O275        H295   0.990       .  S
O275        H304   0.990       .  S
O276        C277   1.280       .  A
O278        H297   0.990       .  S
O278        H301   0.991       .  S
O279        H293   0.990       .  S
O279        H300   0.990       .  S
O280        C284   1.283       .  A
O281        C284   1.285       .  A
O282        H292   0.990       .  S
O283        H296   0.990       .  S
C284        C317   1.467       .  S
C307        N308   1.358       .  A
C307        N312   1.362       .  A
N308        C309   1.344       .  A
C309        N310   1.344       .  A
C309        C736   1.469       .  S
N310        C311   1.357       .  A
C311        N312   1.361       .  A
C311        C348   1.456       .  S
C313        N314   1.358       .  A
C313        N318   1.369       .  A
C313        C349   1.467       .  S
N314        C315   1.354       .  A
C315        N316   1.351       .  A
C315        C676   1.476       .  S
N316        C317   1.351       .  A
C317        N318   1.366       .  A
C319        N320   1.366       .  A
C319        N324   1.360       .  A
C319        C503   1.477       .  S
N320        C321   1.359       .  A
C321        N322   1.355       .  A
C321        C700   1.496       .  S
N322        C323   1.358       .  A
C323        N324   1.361       .  A
C323        C347   1.461       .  S
Zr325       O326   2.442       .  S
Zr325       O327   2.415       .  S
Zr325       O328   2.421       .  S
Zr325       O331   2.373       .  S
Zr325       O333   2.367       .  S
Zr325       O334   2.383       .  S
Zr325       O335   2.390       .  S
Zr325       O336   2.394       .  S
O326        H382   0.990       .  S
O326        H390   0.990       .  S
O327        C347   1.280       .  A
O328        C349   1.280       .  A
O329       Zr339   2.445       .  S
O329        C348   1.285       .  A
O330       Zr338   2.453       .  S
O330        C349   1.286       .  A
O331        C348   1.276       .  A
O332       Zr340   2.432       .  S
O332        C347   1.281       .  A
O333       Zr338   2.396       .  S
O333       Zr340   2.378       .  S
O334       Zr339   2.400       .  S
O334       Zr340   2.369       .  S
O334        H369   0.966       .  S
O335       Zr338   2.398       .  S
O335       Zr355   2.401       .  S
O335        H372   0.967       .  S
O336       Zr339   2.403       .  S
O336       Zr355   2.378       .  S
Zr337       O362   2.444       .  S
Zr337       O356   2.426       .  S
Zr337       O364   2.423       .  S
Zr337       O352   2.379       .  S
Zr337       O343   2.394       .  S
Zr337       O344   2.405       .  S
Zr337       O345   2.376       .  S
Zr337       O346   2.371       .  S
Zr338       O357   2.435       .  S
Zr338       O350   2.434       .  S
Zr338       O351   2.440       .  S
Zr338       O344   2.410       .  S
Zr338       O345   2.389       .  S
Zr339       O341   2.435       .  S
Zr339       O363   2.435       .  S
Zr339       O365   2.470       .  S
Zr339       O343   2.391       .  S
Zr339       O346   2.389       .  S
Zr340       O366   2.436       .  S
Zr340       O367   2.435       .  S
Zr340       O342   2.434       .  S
Zr340       O343   2.409       .  S
Zr340       O344   2.393       .  S
O341        H378   0.990       .  S
O342        H373   0.990       .  S
O342        H387   0.990       .  S
O344        H370   0.965       .  S
O345       Zr355   2.376       .  S
O346       Zr355   2.379       .  S
O346        H371   0.965       .  S
O350        H386   0.989       .  S
O351        C353   1.284       .  A
O352        C353   1.277       .  A
O354       Zr355   2.440       .  S
O354        H383   0.990       .  S
Zr355       O358   2.437       .  S
Zr355       O359   2.440       .  S
Zr355       O360   2.416       .  S
O356        C361   1.282       .  A
O357        H374   0.990       .  S
O357        H389   0.990       .  S
O358        H375   0.990       .  S
O359        H379   0.990       .  S
O359        H388   0.990       .  S
O360        C361   1.280       .  A
O362        H381   0.990       .  S
O362        H385   0.990       .  S
O363        H377   0.990       .  S
O363        H384   0.990       .  S
O364        C368   1.282       .  A
O365        C368   1.290       .  A
O366        H376   0.990       .  S
O367        H380   0.990       .  S
C391        N392   1.358       .  A
C391        N396   1.357       .  A
C391        C630   1.456       .  S
N392        C393   1.361       .  A
C393        N394   1.356       .  A
C393        C688   1.491       .  S
N394        C395   1.355       .  A
C395        N396   1.352       .  A
C395        C419   1.457       .  S
Zr397       O398   2.445       .  S
Zr397       O399   2.445       .  S
Zr397       O400   2.471       .  S
Zr397       O403   2.398       .  S
Zr397       O405   2.378       .  S
Zr397       O406   2.407       .  S
Zr397       O407   2.406       .  S
Zr397       O408   2.405       .  S
O398        H454   0.990       .  S
O398        H462   0.991       .  S
O399        C419   1.282       .  A
O400        C421   1.289       .  A
O401       Zr411   2.495       .  S
O401        C420   1.297       .  A
O402       Zr410   2.484       .  S
O402        C421   1.293       .  A
O403        C420   1.279       .  A
O404       Zr412   2.403       .  S
O404        C419   1.273       .  A
O405       Zr410   2.407       .  S
O405       Zr412   2.392       .  S
O406       Zr411   2.387       .  S
O406       Zr412   2.374       .  S
O406        H441   0.965       .  S
O407       Zr410   2.408       .  S
O407       Zr427   2.397       .  S
O407        H444   0.965       .  S
O408       Zr411   2.392       .  S
O408       Zr427   2.368       .  S
Zr409       O434   2.444       .  S
Zr409       O428   2.454       .  S
Zr409       O436   2.460       .  S
Zr409       O424   2.400       .  S
Zr409       O415   2.398       .  S
Zr409       O416   2.419       .  S
Zr409       O417   2.372       .  S
Zr409       O418   2.381       .  S
Zr410       O429   2.435       .  S
Zr410       O422   2.435       .  S
Zr410       O423   2.482       .  S
Zr410       O416   2.412       .  S
Zr410       O417   2.394       .  S
Zr411       O413   2.433       .  S
Zr411       O435   2.439       .  S
Zr411       O437   2.494       .  S
Zr411       O415   2.397       .  S
Zr411       O418   2.406       .  S
Zr412       O438   2.436       .  S
Zr412       O439   2.436       .  S
Zr412       O414   2.436       .  S
Zr412       O415   2.397       .  S
Zr412       O416   2.361       .  S
O413        H450   0.990       .  S
O414        H445   0.990       .  S
O414        H459   0.990       .  S
O416        H442   0.963       .  S
O417       Zr427   2.377       .  S
O418       Zr427   2.392       .  S
O418        H443   0.965       .  S
C421        C469   1.496       .  S
O422        H458   0.990       .  S
O423        C425   1.294       .  A
O424        C425   1.280       .  A
O426       Zr427   2.439       .  S
O426        H455   0.990       .  S
Zr427       O430   2.437       .  S
Zr427       O431   2.440       .  S
Zr427       O432   2.396       .  S
O428        C433   1.285       .  A
O429        H446   0.990       .  S
O429        H461   0.990       .  S
O430        H447   0.990       .  S
O431        H451   0.990       .  S
O431        H460   0.990       .  S
O432        C433   1.274       .  A
O434        H453   0.992       .  S
O434        H457   0.989       .  S
O435        H449   0.990       .  S
O435        H456   0.990       .  S
O436        C440   1.289       .  A
O437        C440   1.295       .  A
O438        H448   0.990       .  S
O439        H452   0.991       .  S
C463        N464   1.354       .  A
C463        N468   1.358       .  A
C463        C569   1.458       .  S
N464        C465   1.358       .  A
C465        N466   1.357       .  A
C465        C673   1.469       .  S
N466        C467   1.358       .  A
C467        N468   1.357       .  A
C467        C511   1.459       .  S
C469        N470   1.354       .  A
C469        N474   1.385       .  A
N470        C471   1.350       .  A
C471        N472   1.352       .  A
C471        C724   1.469       .  S
N472        C473   1.354       .  A
C473        N474   1.384       .  A
C473        C518   1.500       .  S
Zr475       O476   2.445       .  S
Zr475       O477   2.455       .  S
Zr475       O478   2.480       .  S
Zr475       O481   2.400       .  S
Zr475       O483   2.382       .  S
Zr475       O484   2.408       .  S
Zr475       O485   2.407       .  S
Zr475       O486   2.406       .  S
O476        H532   0.991       .  S
O476        H540   0.990       .  S
O477        C497   1.282       .  A
O478        C499   1.291       .  A
O479       Zr489   2.483       .  S
O479        C498   1.294       .  A
O480       Zr488   2.498       .  S
O480        C499   1.296       .  A
O481        C498   1.280       .  A
O482       Zr490   2.407       .  S
O482        C497   1.271       .  A
O483       Zr488   2.408       .  S
O483       Zr490   2.390       .  S
O484       Zr489   2.390       .  S
O484       Zr490   2.373       .  S
O484        H519   0.964       .  S
O485       Zr488   2.410       .  S
O485       Zr505   2.390       .  S
O485        H522   0.964       .  S
O486       Zr489   2.398       .  S
O486       Zr505   2.369       .  S
Zr487       O512   2.443       .  S
Zr487       O506   2.459       .  S
Zr487       O514   2.457       .  S
Zr487       O502   2.402       .  S
Zr487       O493   2.397       .  S
Zr487       O494   2.423       .  S
Zr487       O495   2.375       .  S
Zr487       O496   2.382       .  S
Zr488       O507   2.430       .  S
Zr488       O500   2.434       .  S
Zr488       O501   2.503       .  S
Zr488       O494   2.415       .  S
Zr488       O495   2.395       .  S
Zr489       O491   2.436       .  S
Zr489       O513   2.439       .  S
Zr489       O515   2.494       .  S
Zr489       O493   2.392       .  S
Zr489       O496   2.402       .  S
Zr490       O516   2.437       .  S
Zr490       O517   2.435       .  S
Zr490       O492   2.437       .  S
Zr490       O493   2.398       .  S
Zr490       O494   2.374       .  S
O491        H528   0.990       .  S
O492        H523   0.990       .  S
O492        H537   0.990       .  S
O494        H520   0.963       .  S
O495       Zr505   2.379       .  S
O496       Zr505   2.390       .  S
O496        H521   0.966       .  S
O500        H536   0.990       .  S
O501        C503   1.299       .  A
O502        C503   1.281       .  A
O504       Zr505   2.440       .  S
O504        H533   0.990       .  S
Zr505       O508   2.440       .  S
Zr505       O509   2.438       .  S
Zr505       O510   2.395       .  S
O506        C511   1.284       .  A
O507        H524   0.990       .  S
O507        H539   0.990       .  S
O508        H525   0.990       .  S
O509        H529   0.990       .  S
O509        H538   0.990       .  S
O510        C511   1.271       .  A
O512        H531   0.989       .  S
O512        H535   0.991       .  S
O513        H527   0.990       .  S
O513        H534   0.989       .  S
O514        C518   1.288       .  A
O515        C518   1.295       .  A
O516        H526   0.990       .  S
O517        H530   0.990       .  S
Zr541       O542   2.435       .  S
Zr541       O543   2.448       .  S
Zr541       O544   2.413       .  S
Zr541       O547   2.415       .  S
Zr541       O549   2.376       .  S
Zr541       O550   2.384       .  S
Zr541       O551   2.416       .  S
Zr541       O552   2.404       .  S
O542        H598   0.990       .  S
O542        H606   0.990       .  S
O543        C563   1.284       .  A
O544        C565   1.281       .  A
O545       Zr555   2.460       .  S
O545        C564   1.285       .  A
O546       Zr554   2.446       .  S
O546        C565   1.285       .  A
O547        C564   1.274       .  A
O548       Zr556   2.417       .  S
O548        C563   1.279       .  A
O549       Zr554   2.400       .  S
O549       Zr556   2.386       .  S
O550       Zr555   2.403       .  S
O550       Zr556   2.374       .  S
O550        H585   0.966       .  S
O551       Zr554   2.398       .  S
O551       Zr571   2.391       .  S
O551        H588   0.964       .  S
O552       Zr555   2.387       .  S
O552       Zr571   2.397       .  S
Zr553       O578   2.438       .  S
Zr553       O572   2.451       .  S
Zr553       O580   2.402       .  S
Zr553       O568   2.411       .  S
Zr553       O559   2.395       .  S
Zr553       O560   2.412       .  S
Zr553       O561   2.369       .  S
Zr553       O562   2.380       .  S
Zr554       O573   2.438       .  S
Zr554       O566   2.435       .  S
Zr554       O567   2.448       .  S
Zr554       O560   2.400       .  S
Zr554       O561   2.396       .  S
Zr555       O557   2.433       .  S
Zr555       O579   2.436       .  S
Zr555       O581   2.448       .  S
Zr555       O559   2.391       .  S
Zr555       O562   2.402       .  S
Zr556       O582   2.437       .  S
Zr556       O583   2.436       .  S
Zr556       O558   2.436       .  S
Zr556       O559   2.381       .  S
Zr556       O560   2.401       .  S
O557        H594   0.990       .  S
O558        H589   0.991       .  S
O558        H603   0.990       .  S
O560        H586   0.966       .  S
O561       Zr571   2.380       .  S
O562       Zr571   2.383       .  S
O562        H587   0.966       .  S
O566        H602   0.990       .  S
O567        C569   1.285       .  A
O568        C569   1.275       .  A
O570       Zr571   2.442       .  S
O570        H599   0.990       .  S
Zr571       O574   2.438       .  S
Zr571       O575   2.442       .  S
Zr571       O576   2.428       .  S
O572        C577   1.285       .  A
O573        H590   0.990       .  S
O573        H605   0.990       .  S
O574        H591   0.990       .  S
O575        H595   0.990       .  S
O575        H604   0.990       .  S
O576        C577   1.281       .  A
O578        H597   0.991       .  S
O578        H601   0.991       .  S
O579        H593   0.990       .  S
O579        H600   0.990       .  S
O580        C584   1.279       .  A
O581        C584   1.286       .  A
O582        H592   0.990       .  S
O583        H596   0.990       .  S
Zr607       O608   2.443       .  S
Zr607       O609   2.463       .  S
Zr607       O610   2.406       .  S
Zr607       O613   2.404       .  S
Zr607       O615   2.374       .  S
Zr607       O616   2.385       .  S
Zr607       O617   2.420       .  S
Zr607       O618   2.411       .  S
O608        H664   0.990       .  S
O608        H672   0.990       .  S
O609        C629   1.287       .  A
O610        C631   1.279       .  A
O611       Zr621   2.448       .  S
O611        C630   1.281       .  A
O612       Zr620   2.442       .  S
O612        C631   1.283       .  A
O613        C630   1.273       .  A
O614       Zr622   2.432       .  S
O614        C629   1.281       .  A
O615       Zr620   2.404       .  S
O615       Zr622   2.384       .  S
O616       Zr621   2.406       .  S
O616       Zr622   2.373       .  S
O616        H651   0.965       .  S
O617       Zr620   2.399       .  S
O617       Zr637   2.392       .  S
O617        H654   0.965       .  S
O618       Zr621   2.387       .  S
O618       Zr637   2.397       .  S
Zr619       O644   2.446       .  S
Zr619       O638   2.444       .  S
Zr619       O646   2.403       .  S
Zr619       O634   2.399       .  S
Zr619       O625   2.397       .  S
Zr619       O626   2.410       .  S
Zr619       O627   2.371       .  S
Zr619       O628   2.387       .  S
Zr620       O639   2.437       .  S
Zr620       O632   2.433       .  S
Zr620       O633   2.442       .  S
Zr620       O626   2.396       .  S
Zr620       O627   2.392       .  S
Zr621       O623   2.436       .  S
Zr621       O645   2.439       .  S
Zr621       O647   2.435       .  S
Zr621       O625   2.399       .  S
Zr621       O628   2.405       .  S
Zr622       O648   2.436       .  S
Zr622       O649   2.436       .  S
Zr622       O624   2.437       .  S
Zr622       O625   2.393       .  S
Zr622       O626   2.399       .  S
O623        H660   0.990       .  S
O624        H655   0.990       .  S
O624        H669   0.990       .  S
O626        H652   0.966       .  S
O627       Zr637   2.378       .  S
O628       Zr637   2.388       .  S
O628        H653   0.967       .  S
O632        H668   0.990       .  S
O633        C635   1.284       .  A
O634        C635   1.275       .  A
O636       Zr637   2.435       .  S
O636        H665   0.990       .  S
Zr637       O640   2.434       .  S
Zr637       O641   2.440       .  S
Zr637       O642   2.421       .  S
O638        C643   1.284       .  A
O639        H656   0.990       .  S
O639        H671   0.990       .  S
O640        H657   0.990       .  S
O641        H661   0.991       .  S
O641        H670   0.990       .  S
O642        C643   1.280       .  A
O644        H663   0.991       .  S
O644        H667   0.991       .  S
O645        H659   0.990       .  S
O645        H666   0.990       .  S
O646        C650   1.277       .  A
O647        C650   1.282       .  A
O648        H658   0.990       .  S
O649        H662   0.990       .  S
C673        C674   1.398       .  A
C673        C678   1.414       .  A
C674        C675   1.390       .  A
C674        H683   1.085       .  S
C675        C676   1.417       .  A
C675        S679   1.805       .  S
C676        C677   1.404       .  A
C677        C678   1.401       .  A
C677        H684   1.084       .  S
C678        S680   1.802       .  S
S679        H682   1.408       .  S
S680        H681   1.405       .  S
C685        C686   1.403       .  A
C685        C690   1.414       .  A
C686        C687   1.398       .  A
C686        H695   1.084       .  S
C687        C688   1.421       .  A
C687        S691   1.803       .  S
C688        C689   1.408       .  A
C689        C690   1.400       .  A
C689        H696   1.083       .  S
C690        S692   1.804       .  S
S691        H694   1.408       .  S
S692        H693   1.406       .  S
C697        C698   1.407       .  A
C697        C702   1.418       .  A
C698        C699   1.407       .  A
C698        H707   1.084       .  S
C699        C700   1.417       .  A
C699        S703   1.801       .  S
C700        C701   1.406       .  A
C701        C702   1.401       .  A
C701        H708   1.084       .  S
C702        S704   1.799       .  S
S703        H706   1.407       .  S
S704        H705   1.406       .  S
C709        C710   1.409       .  A
C709        C714   1.417       .  A
C710        C711   1.402       .  A
C710        H719   1.083       .  S
C711        C712   1.421       .  A
C711        S715   1.800       .  S
C712        C713   1.410       .  A
C713        C714   1.403       .  A
C713        H720   1.083       .  S
C714        S716   1.803       .  S
S715        H718   1.408       .  S
S716        H717   1.408       .  S
C721        C722   1.405       .  A
C721        C726   1.411       .  A
C722        C723   1.401       .  A
C722        H731   1.084       .  S
C723        C724   1.411       .  A
C723        S727   1.803       .  S
C724        C725   1.401       .  A
C725        C726   1.392       .  A
C725        H732   1.085       .  S
C726        S728   1.801       .  S
S727        H730   1.407       .  S
S728        H729   1.406       .  S
C733        C734   1.405       .  A
C733        C738   1.412       .  A
C734        C735   1.399       .  A
C734        H743   1.084       .  S
C735        C736   1.412       .  A
C735        S739   1.805       .  S
C736        C737   1.402       .  A
C737        C738   1.392       .  A
C737        H744   1.084       .  S
C738        S740   1.804       .  S
S739        H742   1.407       .  S
S740        H741   1.407       .  S
C745        C746   1.403       .  A
C745        C750   1.410       .  A
C746        C747   1.394   1_556  A
C746        H755   1.084       .  S
C747        C748   1.415       .  A
C747        S751   1.804   1_455  S
C748        C749   1.406       .  A
C749        C750   1.395   1_554  A
C749        H756   1.084       .  S
C750        S752   1.805       .  S
S751        H754   1.407   1_655  S
S752        H753   1.406       .  S
C757        C758   1.406       .  A
C757        C762   1.412       .  A
C758        C759   1.405   1_554  A
C758        H767   1.084   1_455  S
C759        C760   1.420       .  A
C759        S763   1.803   1_455  S
C760        C761   1.408       .  A
C761        C762   1.394   1_556  A
C761        H768   1.083       .  S
C762        S764   1.803       .  S
S763        H766   1.407       .  S
S764        H765   1.408       .  S
C769        C770   1.404   1_545  A
C769        C774   1.412       .  A
C770        C771   1.392       .  A
C770        H779   1.084       .  S
C771        C772   1.412   1_565  A
C771        S775   1.804       .  S
C772        C773   1.405       .  A
C773        C774   1.397       .  A
C773        H780   1.084       .  S
C774        S776   1.801       .  S
S775        H778   1.407       .  S
S776        H777   1.400   1_455  S
C781        C782   1.402   1_545  A
C781        C786   1.413       .  A
C782        C783   1.389       .  A
C782        H791   1.084       .  S
C783        C784   1.411   1_565  A
C783        S787   1.798       .  S
C784        C785   1.407       .  A
C785        C786   1.404       .  A
C785        H792   1.084       .  S
C786        S788   1.802       .  S
S787        H790   1.406       .  S
S788        H789   1.406   1_455  S
C793        C794   1.405   1_566  A
C793        C798   1.417   1_565  A
C794        C795   1.397       .  A
C794        H803   1.084   1_545  S
C795        C796   1.415       .  A
C795        S799   1.804       .  S
C796        C797   1.403   1_554  A
C797        C798   1.405       .  A
C797        H804   1.080       .  S
C798        S800   1.802   1_545  S
S799        H802   1.408       .  S
S800        H801   1.407       .  S
C805        C806   1.409   1_554  A
C805        C810   1.415       .  A
C806        C807   1.405   1_565  A
C806        H815   1.082       .  S
C807        C808   1.418       .  A
C807        S811   1.806       .  S
C808        C809   1.410   1_556  A
C809        C810   1.400   1_545  A
C809        H816   1.083       .  S
C810        S812   1.801       .  S
S811        H814   1.404       .  S
S812        H813   1.408       .  S
