geometry optimzed in LAMMPS
_audit_creation_date              2020-11-30 
_audit_creation_method            'lammps2cif' 
_symmetry_space_group_name_H-M    'P1' 
_symmetry_Int_Tables_number       1 
_symmetry_cell_setting            triclinic 
loop_ 
_symmetry_equiv_pos_as_xyz 
  x,y,z 
_cell_length_a                    49.05310862 
_cell_length_b                    48.76338814815679 
_cell_length_c                    41.797427243941954 
_cell_angle_alpha                 90.10714195319548 
_cell_angle_beta                  89.90499289522089 
_cell_angle_gamma                 119.88070788261959 
loop_ 
_atom_site_label 
_atom_site_type_symbol 
_atom_site_fract_x 
_atom_site_fract_y 
_atom_site_fract_z 
_atom_site_charge 
C1          C  0.33100291  0.16558075  0.28035564     0.46400
H2          H  0.33082843  0.16533807  0.30682670    -0.02600
C3          C  0.33258636  0.16758740  0.21826276     0.46500
H4          H  0.33295932  0.16806135  0.19168558    -0.02600
C5          C  0.29906984  0.14283879  0.26474987    -0.16300
C6          C  0.34057602  0.19837784  0.26679649    -0.16000
C7          C  0.35462084  0.15690279  0.26567915    -0.16400
C8          C  0.30020439  0.14415013  0.23185952    -0.16400
C9          C  0.34139221  0.19950493  0.23394152    -0.15900
C10         C  0.35491246  0.15763775  0.23275465    -0.16300
O11         O  0.09727681  0.06379850  0.02879199    -0.70800
O12         O  0.06136745  0.09845358  0.46924647    -0.71000
O13         O  0.06420675  0.09674761  0.03432093    -0.70900
O14         O  0.09448355  0.06583665  0.46375789    -0.70900
O15         O  0.05794035  0.02078956  0.47932249    -0.70800
O16         O  0.01934190  0.05929669  0.01974348    -0.70900
O17         O  0.02795418  0.04965134  0.45905955    -0.70800
O18         O  0.04905512  0.03025185  0.03996058    -0.71000
V19         V  0.07986452  0.08175870  0.49905812     1.35200
V20         V  0.03893929  0.04035841  0.99950959     1.35200
C21         C  0.07766515  0.03904653  0.04407924     0.78400
C22         C  0.03672057  0.07836978  0.45426242     0.78500
C23         C  0.03423728  0.08235371  0.03739572     0.78400
C24         C  0.08037434  0.03567644  0.46112229     0.78300
O25         O  0.43996853  0.46226039  0.01999968    -0.70800
O26         O  0.47869452  0.03875342  0.47853592    -0.71000
O27         O  0.47003979  0.02137132  0.03943169    -0.70900
O28         O  0.44871560  0.47958402  0.45917810    -0.70900
O29         O  0.40058624  0.46516393  0.47045832    -0.70800
O30         O  0.43683594  0.03681468  0.02872189    -0.70900
O31         O  0.43385217  0.03118657  0.46382277    -0.70800
O32         O  0.40369928  0.47128330  0.03532381    -0.71000
V33         V  0.45901133  0.00050948  0.99928254     1.35200
V34         V  0.41819595  0.00111434  0.49951657     1.37300
C35         C  0.41773979  0.45524538  0.03834175     0.78400
C36         C  0.46383149  0.04674388  0.46074374     0.78500
C37         C  0.46139833  0.04145571  0.04380953     0.78400
C38         C  0.42006885  0.45963842  0.45545643     0.78300
O39         O  0.03427112  0.43753495  0.47057119    -0.70800
O40         O  0.46344305  0.40269710  0.02988372    -0.71000
O41         O  0.46868620  0.40467515  0.46473122    -0.70900
O42         O  0.02915098  0.43531433  0.03565600    -0.70900
O43         O  0.03705396  0.48044652  0.02071136    -0.70800
O44         O  0.46101864  0.44226226  0.47904678    -0.70900
O45         O  0.47819177  0.45142479  0.04009393    -0.70800
O46         O  0.01972799  0.47147920  0.45969126    -0.71000
V47         V  0.49887410  0.41954809  0.00022948     1.35200
V48         V  0.99900808  0.46100404  0.99990282     1.35200
C49         C  0.03936150  0.46235775  0.45532095     0.78400
C50         C  0.45840066  0.42270766  0.04473402     0.78500
C51         C  0.45314261  0.41919481  0.46139863     0.78400
C52         C  0.04492717  0.46546640  0.03854336     0.78300
C53         C  0.01525204  0.12555887  0.10159435     0.03300
C54         C  0.48203558  0.10727440  0.10363085     0.03200
C55         C  0.46574896  0.08017248  0.08467625    -0.17300
C56         C  0.48141923  0.07072386  0.06326305     0.03300
C57         C  0.01539105  0.08989647  0.06041112     0.03200
C58         C  0.03132779  0.11667419  0.07983456    -0.17300
H59         H  0.05672974  0.13044265  0.07837650     0.05300
H60         H  0.44032705  0.06631084  0.08642725     0.05300
C61         C  0.37513880  0.39476314  0.10341684     0.03300
C62         C  0.39222738  0.37834693  0.10499269     0.03200
C63         C  0.41890637  0.38825871  0.08538052    -0.17300
C64         C  0.42902581  0.41371417  0.06421149     0.03300
C65         C  0.41062524  0.42952848  0.06194343     0.03200
C66         C  0.38469987  0.42006892  0.08212002    -0.17300
H67         H  0.37110074  0.43202479  0.08061919     0.05300
H68         H  0.43268889  0.37654389  0.08715686     0.05300
C69         C  0.48306807  0.10958543  0.39734091     0.03300
C70         C  0.01615857  0.12369056  0.39445900     0.03200
C71         C  0.03233686  0.11243062  0.41293108    -0.17300
C72         C  0.01668893  0.08750656  0.43458269     0.03300
C73         C  0.48274844  0.07302961  0.43769165     0.03200
C74         C  0.46695207  0.08441962  0.41887759    -0.17300
H75         H  0.44161951  0.07329075  0.42089816     0.05300
H76         H  0.05769947  0.12363510  0.41075640     0.05300
C77         C  0.39060515  0.37516063  0.39822262     0.03300
C78         C  0.37348042  0.39146422  0.39837153     0.03200
C79         C  0.38378168  0.41839355  0.41771393    -0.17300
C80         C  0.41050985  0.42958540  0.43696219     0.03300
C81         C  0.42672750  0.41147652  0.43847951     0.03200
C82         C  0.41675577  0.38519727  0.41833172    -0.17300
H83         H  0.42909461  0.37192178  0.41869234     0.05300
H84         H  0.37138493  0.43160028  0.41698417     0.05300
C85         C  0.12275282  0.01649277  0.39654814     0.03300
C86         C  0.10479031  0.48311168  0.39488995     0.03200
C87         C  0.07807622  0.46658724  0.41424974    -0.17300
C88         C  0.06861418  0.48233232  0.43568163     0.03300
C89         C  0.08756250  0.01659485  0.43805456     0.03200
C90         C  0.11388492  0.03265623  0.41824051    -0.17300
H91         H  0.12752834  0.05822864  0.41955136     0.05300
H92         H  0.06451957  0.44099430  0.41270398     0.05300
C93         C  0.12274606  0.01799162  0.10358723     0.03300
C94         C  0.10702332  0.48449587  0.10253950     0.03200
C95         C  0.08182937  0.46836759  0.08113016    -0.17300
C96         C  0.07145665  0.48448925  0.06131502     0.03300
C97         C  0.08697398  0.01881413  0.06336920     0.03200
C98         C  0.11255203  0.03451098  0.08409889    -0.17300
H99         H  0.12468534  0.06013865  0.08526343     0.05300
H100        H  0.06960224  0.44276919  0.08026995     0.05300
C101        C  0.16561307  0.33383045  0.21867395     0.46400
H102        H  0.16552893  0.33416493  0.19215715    -0.02600
C103        C  0.16716361  0.33406574  0.28077201     0.46500
H104        H  0.16725851  0.33373890  0.30732423    -0.02600
C105        C  0.14429364  0.30110483  0.23339644    -0.16300
C106        C  0.19834331  0.34476322  0.23238735    -0.16000
C107        C  0.15504532  0.35576165  0.23393764    -0.16400
C108        C  0.14522656  0.30131620  0.26629004    -0.16400
C109        C  0.19947683  0.34501029  0.26525016    -0.15900
C110        C  0.15574829  0.35561405  0.26681839    -0.16300
C111        C  0.12061904  0.42640631  0.14069828     0.21300
C112        C  0.12100864  0.39792481  0.14321809    -0.38600
C113        C  0.13092169  0.39247731  0.17276253     0.20300
C114        C  0.14016260  0.41393462  0.19769522     0.22900
C115        C  0.13930510  0.44221387  0.19535040    -0.39100
C116        C  0.12901771  0.44748532  0.16589901     0.21700
N117        N  0.11239918  0.43717847  0.11506999    -0.32300
C118        C  0.11536438  0.46535048  0.12388026    -0.09900
C119        C  0.12534741  0.47230442  0.15571298    -0.28700
N120        N  0.14998402  0.40388449  0.22269099    -0.45300
C121        C  0.14618738  0.37533359  0.21397313    -0.04600
C122        C  0.13448724  0.36760463  0.18284879    -0.22000
H123        H  0.11428017  0.38132862  0.12355581     0.19900
H124        H  0.14630610  0.45894135  0.21492174     0.18700
H125        H  0.12885810  0.49237836  0.16989365     0.14900
H126        H  0.12939335  0.34668283  0.16924704     0.14800
H127        H  0.10540180  0.42601537  0.09283542     0.33000
H128        H  0.15988937  0.41656711  0.24368129     0.35700
C129        C  0.14935139  0.40713169  0.32314953     0.21300
C130        C  0.15999982  0.43091462  0.34653730    -0.38600
C131        C  0.13923007  0.44181051  0.35431932     0.20300
C132        C  0.10999049  0.42971439  0.34006829     0.22900
C133        C  0.09946177  0.40614516  0.31646892    -0.39100
C134        C  0.12030743  0.39538677  0.30855181     0.21700
N135        N  0.16504123  0.39352756  0.31090189    -0.32300
C136        C  0.14614802  0.37352937  0.28792033    -0.09900
C137        C  0.11780995  0.37360483  0.28602847    -0.28700
N138        N  0.09429061  0.44329321  0.35233850    -0.45300
C139        C  0.11379412  0.46438318  0.37428419    -0.04600
C140        C  0.14209102  0.46424331  0.37621116    -0.22000
H141        H  0.18280241  0.44030055  0.35776220     0.19900
H142        H  0.07676069  0.39693280  0.30506422     0.18700
H143        H  0.09853833  0.36031987  0.26966412     0.14900
H144        H  0.16167120  0.47808624  0.39205938     0.14800
H145        H  0.18771757  0.39846405  0.31684089     0.33000
H146        H  0.07162943  0.43840717  0.34638015     0.35700
C147        C  0.25878081  0.36705082  0.32571444     0.21300
C148        C  0.27176525  0.37580675  0.35642484    -0.38600
C149        C  0.30050385  0.37670160  0.36096280     0.20300
C150        C  0.31540482  0.36981012  0.33672902     0.22900
C151        C  0.30240305  0.36107099  0.30599277    -0.39100
C152        C  0.27343086  0.35977796  0.30157787     0.21700
N153        N  0.23120781  0.36342157  0.31560896    -0.32300
C154        C  0.22800137  0.35355395  0.28476661    -0.09900
C155        C  0.25396844  0.35085542  0.27533318    -0.28700
N156        N  0.34284614  0.37313040  0.34700858    -0.45300
C157        C  0.34534918  0.38203633  0.37813406    -0.04600
C158        C  0.31930040  0.38445740  0.38759808    -0.22000
H159        H  0.26023031  0.38128010  0.37544649     0.19900
H160        H  0.31384694  0.35543285  0.28701071     0.18700
H161        H  0.25780779  0.34219575  0.25294697     0.14900
H162        H  0.31501160  0.39158522  0.41074079     0.14800
H163        H  0.21551807  0.36727837  0.32913005     0.33000
H164        H  0.35932342  0.37075401  0.33322896     0.35700
C165        C  0.09252569  0.24340284  0.32163307     0.21300
C166        C  0.06876794  0.23072568  0.34491420    -0.38600
C167        C  0.05783892  0.19907362  0.35310369     0.20300
C168        C  0.06979716  0.18144588  0.33926207     0.22900
C169        C  0.09332981  0.19401293  0.31568786    -0.39100
C170        C  0.10419256  0.22567311  0.30740716     0.21700
N171        N  0.10648921  0.27276909  0.30948737    -0.32300
C172        C  0.12675727  0.27360778  0.28697985    -0.09900
C173        C  0.12630762  0.24480193  0.28515255    -0.28700
N174        N  0.05614377  0.15227155  0.35190326    -0.45300
C175        C  0.03511806  0.15123048  0.37365918    -0.04600
C176        C  0.03549484  0.17998316  0.37513109    -0.22000
H177        H  0.05951465  0.24452353  0.35588537     0.19900
H178        H  0.10253190  0.18019000  0.30466855     0.18700
H179        H  0.13971646  0.23854452  0.26914083     0.14900
H180        H  0.02178082  0.18621914  0.39072208     0.14800
H181        H  0.10182616  0.29086874  0.31535002     0.33000
H182        H  0.06090172  0.13419501  0.34625332     0.35700
C183        C  0.31450183  0.39137526  0.15378426     0.21300
C184        C  0.30055157  0.40304890  0.17509228    -0.38600
C185        C  0.27068863  0.38078386  0.18644430     0.20300
C186        C  0.25576815  0.34937921  0.17696993     0.22900
C187        C  0.26974824  0.33771733  0.15570370    -0.39100
C188        C  0.29971234  0.35993153  0.14454886     0.21700
N189        N  0.34305509  0.40754682  0.14028526    -0.32300
C190        C  0.34671671  0.38620388  0.12271215    -0.09900
C191        C  0.31995684  0.35629452  0.12437015    -0.28700
N192        N  0.22784633  0.33285544  0.19164257    -0.45300
C193        C  0.22526669  0.35376203  0.21093574    -0.04600
C194        C  0.25133570  0.38396740  0.20826699    -0.22000
H195        H  0.31229416  0.42753907  0.18265268     0.19900
H196        H  0.25831434  0.31307724  0.14871042     0.18700
H197        H  0.31602572  0.33482211  0.11263505     0.14900
H198        H  0.25570601  0.40511497  0.22101318     0.14800
H199        H  0.35931176  0.43156236  0.14319309     0.33000
H200        H  0.21189027  0.30868028  0.18943940     0.35700
C201        C  0.07258877  0.19770026  0.13887116     0.21300
C202        C  0.10063159  0.22674885  0.14113615    -0.38600
C203        C  0.10657149  0.24169134  0.17103034     0.20300
C204        C  0.08593886  0.22894736  0.19645164     0.22900
C205        C  0.05815078  0.19967782  0.19432271    -0.39100
C206        C  0.05243642  0.18451702  0.16459125     0.21700
N207        N  0.06154289  0.17881697  0.11316024    -0.32300
C208        C  0.03420509  0.15324224  0.12254065    -0.09900
C209        C  0.02802224  0.15586477  0.15470043    -0.28700
N210        N  0.09635038  0.24832035  0.22185431    -0.45300
C211        C  0.12439412  0.27324631  0.21294192    -0.04600
C212        C  0.13135259  0.26996834  0.18123469    -0.22000
H213        H  0.11659575  0.23696091  0.12112164     0.19900
H214        H  0.04216707  0.18948896  0.21432524     0.18700
H215        H  0.00870513  0.13888646  0.16922165     0.14900
H216        H  0.15177604  0.28604181  0.16738476     0.14800
H217        H  0.07203845  0.18318832  0.09058016     0.33000
H218        H  0.08417253  0.24505366  0.24327003     0.35700
C219        C  0.35431507  0.27203498  0.19825274     0.21300
C220        C  0.35409698  0.30066459  0.19573890    -0.38600
C221        C  0.36684600  0.31771960  0.16735490     0.20300
C222        C  0.37831755  0.30673651  0.14329192     0.22900
C223        C  0.37890083  0.27842720  0.14597996    -0.39100
C224        C  0.36662576  0.26166809  0.17442262     0.21700
N225        N  0.34341405  0.25125822  0.22254554    -0.32300
C226        C  0.34954474  0.22789108  0.21434050    -0.09900
C227        C  0.36374306  0.23352249  0.18434343    -0.28700
N228        N  0.38831844  0.32666299  0.11841609    -0.45300
C229        C  0.38349917  0.35087432  0.12647723    -0.04600
C230        C  0.37056962  0.34630360  0.15724583    -0.22000
H231        H  0.34472426  0.30901019  0.21443465     0.19900
H232        H  0.38819376  0.27003693  0.12724718     0.18700
H233        H  0.37111060  0.21906507  0.17146059     0.14900
H234        H  0.36493484  0.36180249  0.17069918     0.14800
H235        H  0.33187612  0.25268300  0.24294681     0.33000
H236        H  0.39748611  0.32359469  0.09700202     0.35700
C237        C  0.34717172  0.25483894  0.32562014     0.21300
C238        C  0.33724199  0.26683486  0.35088775    -0.38600
C239        C  0.35735553  0.29880345  0.35849605     0.20300
C240        C  0.38542573  0.31718340  0.34245710     0.22900
C241        C  0.39526302  0.30524783  0.31713668    -0.39100
C242        C  0.37497818  0.27345385  0.30927207     0.21700
N243        N  0.33182296  0.22557471  0.31305295    -0.32300
C244        C  0.34966609  0.22580884  0.28814995    -0.09900
C245        C  0.37699947  0.25511755  0.28531226    -0.28700
N246        N  0.40053602  0.34664316  0.35443588    -0.45300
C247        C  0.38178594  0.34720649  0.37793341    -0.04600
C248        C  0.35461687  0.31783650  0.38127675    -0.22000
H249        H  0.31532129  0.25244713  0.36343788     0.19900
H250        H  0.41696363  0.31975537  0.30427970     0.18700
H251        H  0.39547980  0.26218910  0.26767394     0.14900
H252        H  0.33575951  0.31126432  0.39835345     0.14800
H253        H  0.31006338  0.20690168  0.32025448     0.33000
H254        H  0.42224546  0.36531247  0.34708381     0.35700
C255        C  0.44718397  0.13404209  0.33735933     0.21300
C256        C  0.44304713  0.14352747  0.30697167    -0.38600
C257        C  0.41580610  0.14569078  0.30307183     0.20300
C258        C  0.39411060  0.13850636  0.32731368     0.22900
C259        C  0.39851975  0.12956218  0.35790913    -0.39100
C260        C  0.42599210  0.12779124  0.36196115     0.21700
N261        N  0.47040260  0.12887030  0.34673755    -0.32300
C262        C  0.46435280  0.11976582  0.37781843    -0.09900
C263        C  0.43676630  0.11887119  0.38807440    -0.28700
N264        N  0.36963575  0.14124787  0.31704672    -0.45300
C265        C  0.37578083  0.15045265  0.28598131    -0.04600
C266        C  0.40484101  0.15405036  0.27677666    -0.22000
H267        H  0.45961613  0.14849337  0.28768035     0.19900
H268        H  0.38163634  0.12400848  0.37700654     0.18700
H269        H  0.42569549  0.11199814  0.41134274     0.14900
H270        H  0.41706464  0.16234008  0.25426874     0.14800
H271        H  0.48838689  0.13017422  0.33228394     0.33000
H272        H  0.34980671  0.13661830  0.33042469     0.35700
C273        C  0.40734174  0.15233601  0.17705518     0.21300
C274        C  0.43149899  0.16338859  0.15420601    -0.38600
C275        C  0.44129762  0.14194811  0.14518223     0.20300
C276        C  0.42786582  0.11173276  0.15779402     0.22900
C277        C  0.40381677  0.10072506  0.18076794    -0.39100
C278        C  0.39415804  0.12223744  0.18994512     0.21700
N279        N  0.39447610  0.16840902  0.19014791    -0.32300
C280        C  0.37340411  0.14861612  0.21188952    -0.09900
C281        C  0.37218187  0.11943460  0.21223282    -0.28700
N282        N  0.44095977  0.09578784  0.14491438    -0.45300
C283        C  0.46311580  0.11609348  0.12423307    -0.04600
C284        C  0.46398239  0.14511454  0.12363443    -0.22000
H285        H  0.44199963  0.18699527  0.14431873     0.19900
H286        H  0.39351528  0.07721782  0.19086984     0.18700
H287        H  0.35771970  0.09928253  0.22729189     0.14900
H288        H  0.47884810  0.16550655  0.10903295     0.14800
H289        H  0.40037957  0.19174216  0.18540423     0.33000
H290        H  0.43520179  0.07251221  0.14982046     0.35700
C291        C  0.18145569  0.05229024  0.33500245     0.21300
C292        C  0.19502341  0.05604172  0.30455061    -0.38600
C293        C  0.22490697  0.08282670  0.30072271     0.20300
C294        C  0.23979314  0.10433952  0.32512225     0.22900
C295        C  0.22640256  0.10043513  0.35557253    -0.39100
C296        C  0.19679488  0.07353344  0.35953989     0.21700
N297        N  0.15318881  0.02910365  0.34482494    -0.32300
C298        C  0.15075748  0.03540778  0.37604510    -0.09900
C299        C  0.17754616  0.06304701  0.38591128    -0.28700
N300        N  0.26762938  0.12808803  0.31532154    -0.45300
C301        C  0.27085325  0.12183854  0.28435242    -0.04600
C302        C  0.24469383  0.09333558  0.27464769    -0.22000
H303        H  0.18321788  0.03939820  0.28530686     0.19900
H304        H  0.23816713  0.11715367  0.37476626     0.18700
H305        H  0.18230123  0.07407125  0.40928047     0.14900
H306        H  0.24061367  0.08117892  0.25202527     0.14800
H307        H  0.13639005  0.01071099  0.33080517     0.33000
H308        H  0.28316191  0.14756810  0.32901643     0.35700
C309        C  0.19634689  0.05772777  0.14494067     0.21300
C310        C  0.22753557  0.06628710  0.15219862    -0.38600
C311        C  0.24250097  0.09050629  0.17493699     0.20300
C312        C  0.22740936  0.10482315  0.18954440     0.22900
C313        C  0.19635893  0.09641579  0.18214514    -0.39100
C314        C  0.18155052  0.07249375  0.15919975     0.21700
N315        N  0.17709110  0.03577796  0.12381955    -0.32300
C316        C  0.15003321  0.03690893  0.12452038    -0.09900
C317        C  0.15195291  0.05953441  0.14621061    -0.28700
N318        N  0.24624565  0.12629974  0.21117189    -0.45300
C319        C  0.27345005  0.12554659  0.21036537    -0.04600
C320        C  0.27228293  0.10393163  0.18778546    -0.22000
H321        H  0.23925815  0.05492838  0.14101395     0.19900
H322        H  0.18458859  0.10767900  0.19342892     0.18700
H323        H  0.13411673  0.06577356  0.15150802     0.14900
H324        H  0.29037479  0.09806114  0.18243915     0.14800
H325        H  0.18220492  0.02144326  0.10932623     0.33000
H326        H  0.24079222  0.14014727  0.22603407     0.35700
C327        C  0.33100282  0.16558072  0.78035570     0.46400
H328        H  0.33082857  0.16533811  0.80682675    -0.02600
C329        C  0.33258577  0.16758726  0.71826284     0.46500
H330        H  0.33295852  0.16806113  0.69168566    -0.02600
C331        C  0.29906961  0.14283868  0.76475017    -0.16300
C332        C  0.34057595  0.19837784  0.76679654    -0.16000
C333        C  0.35462060  0.15690270  0.76567903    -0.16400
C334        C  0.30020390  0.14415004  0.73185982    -0.16400
C335        C  0.34139181  0.19950485  0.73394155    -0.15900
C336        C  0.35491193  0.15763755  0.73275452    -0.16300
O337        O  0.09727716  0.06379871  0.52879196    -0.70800
O338        O  0.06136699  0.09845300  0.96924628    -0.71000
O339        O  0.06420721  0.09674794  0.53432111    -0.70900
O340        O  0.09448323  0.06583621  0.96375795    -0.70900
O341        O  0.05794004  0.02078913  0.97932259    -0.70800
O342        O  0.01934234  0.05929719  0.51974348    -0.70900
O343        O  0.02795371  0.04965072  0.95905955    -0.70800
O344        O  0.04905543  0.03025215  0.53996051    -0.71000
V345        V  0.07986411  0.08175830  0.99905805     1.35200
V346        V  0.03893966  0.04035887  0.49950956     1.35200
C347        C  0.07766545  0.03904672  0.54407917     0.78400
C348        C  0.03672011  0.07836914  0.95426228     0.78500
C349        C  0.03423774  0.08235410  0.53739583     0.78400
C350        C  0.08037409  0.03567600  0.96112244     0.78300
O351        O  0.43996855  0.46226057  0.51999976    -0.70800
O352        O  0.47869462  0.03875350  0.97853552    -0.71000
O353        O  0.47003979  0.02137130  0.53943212    -0.70900
O354        O  0.44871555  0.47958391  0.95917809    -0.70900
O355        O  0.40058618  0.46516380  0.97045833    -0.70800
O356        O  0.43683575  0.03681444  0.52872239    -0.70900
O357        O  0.43385229  0.03118664  0.96382224    -0.70800
O358        O  0.40369933  0.47128353  0.53532386    -0.71000
V359        V  0.45901133  0.00050942  0.49928295     1.35200
V360        V  0.41819602  0.00111453  0.99951611     1.37300
C361        C  0.41773982  0.45524560  0.53834185     0.78400
C362        C  0.46383161  0.04674390  0.96074322     0.78500
C363        C  0.46139820  0.04145560  0.54380997     0.78400
C364        C  0.42006880  0.45963828  0.95545645     0.78300
O365        O  0.03427071  0.43753472  0.97057107    -0.70800
O366        O  0.46344303  0.40269732  0.52988377    -0.71000
O367        O  0.46868613  0.40467493  0.96473122    -0.70900
O368        O  0.02915105  0.43531438  0.53565612    -0.70900
O369        O  0.03705426  0.48044664  0.52071141    -0.70800
O370        O  0.46101873  0.44226218  0.97904670    -0.70900
O371        O  0.47819177  0.45142500  0.54009401    -0.70800
O372        O  0.01972756  0.47147898  0.95969124    -0.71000
V373        V  0.49887411  0.41954835  0.50022954     1.35200
V374        V  0.99900844  0.46100425  0.49990280     1.35200
C375        C  0.03936102  0.46235750  0.95532083     0.78400
C376        C  0.45840067  0.42270788  0.54473412     0.78500
C377        C  0.45314260  0.41919467  0.96139862     0.78400
C378        C  0.04492725  0.46546643  0.53854353     0.78300
C379        C  0.01525229  0.12555917  0.60159437     0.03300
C380        C  0.48203513  0.10727483  0.60363047     0.03200
C381        C  0.46574866  0.08017257  0.58467632    -0.17300
C382        C  0.48141904  0.07072388  0.56326335     0.03300
C383        C  0.01539148  0.08989677  0.56041127     0.03200
C384        C  0.03132814  0.11667461  0.57983456    -0.17300
H385        H  0.05673007  0.13044325  0.57837638     0.05300
H386        H  0.44032677  0.06631071  0.58642751     0.05300
C387        C  0.37513890  0.39476344  0.60341709     0.03300
C388        C  0.39222746  0.37834721  0.60499293     0.03200
C389        C  0.41890645  0.38825899  0.58538074    -0.17300
C390        C  0.42902585  0.41371441  0.56421165     0.03300
C391        C  0.41062529  0.42952873  0.56194360     0.03200
C392        C  0.38469995  0.42006921  0.58212025    -0.17300
H393        H  0.37110083  0.43202509  0.58061945     0.05300
H394        H  0.43268895  0.37654415  0.58715707     0.05300
C395        C  0.48306826  0.10958535  0.89734024     0.03300
C396        C  0.01615834  0.12368997  0.89445881     0.03200
C397        C  0.03233654  0.11242996  0.91293090    -0.17300
C398        C  0.01668852  0.08750589  0.93458244     0.03300
C399        C  0.48274855  0.07302950  0.93769102     0.03200
C400        C  0.46695222  0.08441951  0.91887690    -0.17300
H401        H  0.44161966  0.07329068  0.92089745     0.05300
H402        H  0.05769916  0.12363442  0.91075634     0.05300
C403        C  0.39060500  0.37516047  0.89822279     0.03300
C404        C  0.37348020  0.39146397  0.89837184     0.03200
C405        C  0.38378151  0.41839332  0.91771419    -0.17300
C406        C  0.41050978  0.42958524  0.93696229     0.03300
C407        C  0.42672743  0.41147636  0.93847958     0.03200
C408        C  0.41675564  0.38519709  0.91833183    -0.17300
H409        H  0.42909450  0.37192162  0.91869237     0.05300
H410        H  0.37138472  0.43160003  0.91698447     0.05300
C411        C  0.12275283  0.01649229  0.89654861     0.03300
C412        C  0.10478967  0.48311108  0.89488978     0.03200
C413        C  0.07807561  0.46658676  0.91424963    -0.17300
C414        C  0.06861360  0.48233197  0.93568138     0.03300
C415        C  0.08756242  0.01659439  0.93805488     0.03200
C416        C  0.11388493  0.03265577  0.91824093    -0.17300
H417        H  0.12752841  0.05822819  0.91955178     0.05300
H418        H  0.06451899  0.44099381  0.91270409     0.05300
C419        C  0.12274574  0.01799115  0.60358739     0.03300
C420        C  0.10702287  0.48449547  0.60254001     0.03200
C421        C  0.08182900  0.46836733  0.58113058    -0.17300
C422        C  0.07145645  0.48448913  0.56131543     0.03300
C423        C  0.08697415  0.01881414  0.56336903     0.03200
C424        C  0.11255202  0.03451075  0.58409899    -0.17300
H425        H  0.12468538  0.06013842  0.58526375     0.05300
H426        H  0.06960188  0.44276894  0.58027022     0.05300
C427        C  0.16561283  0.33382965  0.71867438     0.46400
H428        H  0.16552851  0.33416382  0.69215758    -0.02600
C429        C  0.16716374  0.33406581  0.78077244     0.46500
H430        H  0.16725877  0.33373938  0.80732467    -0.02600
C431        C  0.14429393  0.30110412  0.73339737    -0.16300
C432        C  0.19834325  0.34476306  0.73238766    -0.16000
C433        C  0.15504477  0.35576075  0.73393773    -0.16400
C434        C  0.14522698  0.30131600  0.76629097    -0.16400
C435        C  0.19947693  0.34501056  0.76525048    -0.15900
C436        C  0.15574799  0.35561359  0.76681846    -0.16300
C437        C  0.12061870  0.42640570  0.64069838     0.21300
C438        C  0.12100817  0.39792409  0.64321807    -0.38600
C439        C  0.13092131  0.39247652  0.67276245     0.20300
C440        C  0.14016240  0.41393386  0.69769513     0.22900
C441        C  0.13930512  0.44221322  0.69535035    -0.39100
C442        C  0.12901764  0.44748473  0.66589907     0.21700
N443        N  0.11239867  0.43717795  0.61507034    -0.32300
C444        C  0.11536400  0.46534998  0.62388060    -0.09900
C445        C  0.12534734  0.47230388  0.65571320    -0.28700
N446        N  0.14998365  0.40388360  0.72269091    -0.45300
C447        C  0.14618688  0.37533265  0.71397310    -0.04600
C448        C  0.13448673  0.36760373  0.68284874    -0.22000
H449        H  0.11427945  0.38132785  0.62355579     0.19900
H450        H  0.14630627  0.45894071  0.71492170     0.18700
H451        H  0.12885818  0.49237781  0.66989396     0.14900
H452        H  0.12939275  0.34668189  0.66924701     0.14800
H453        H  0.10540105  0.42601483  0.59283580     0.33000
H454        H  0.15988900  0.41656621  0.74368120     0.35700
C455        C  0.14935195  0.40713272  0.82314816     0.21300
C456        C  0.16000078  0.43091655  0.84653498    -0.38600
C457        C  0.13923022  0.44181114  0.85431810     0.20300
C458        C  0.10998957  0.42971302  0.84006894     0.22900
C459        C  0.09946051  0.40614295  0.81647045    -0.39100
C460        C  0.12030695  0.39538586  0.80855222     0.21700
N461        N  0.16504211  0.39352914  0.81090010    -0.32300
C462        C  0.14614802  0.37352930  0.78792008    -0.09900
C463        C  0.11780919  0.37360332  0.78602947    -0.28700
N464        N  0.09428911  0.44329097  0.85233986    -0.45300
C465        C  0.11379342  0.46438247  0.87428409    -0.04600
C466        C  0.14209131  0.46424435  0.87620946    -0.22000
H467        H  0.18280418  0.44030400  0.85775846     0.19900
H468        H  0.07675857  0.39692897  0.80506724     0.18700
H469        H  0.09853675  0.36031682  0.76966646     0.14900
H470        H  0.16167232  0.47808878  0.89205626     0.14800
H471        H  0.18771908  0.39846682  0.81683794     0.33000
H472        H  0.07162720  0.43840352  0.84638281     0.35700
C473        C  0.25878080  0.36705122  0.82571481     0.21300
C474        C  0.27176515  0.37580691  0.85642527    -0.38600
C475        C  0.30050363  0.37670153  0.86096327     0.20300
C476        C  0.31540456  0.36981006  0.83672948     0.22900
C477        C  0.30240292  0.36107114  0.80599318    -0.39100
C478        C  0.27343085  0.35977832  0.80157825     0.21700
N479        N  0.23120783  0.36342214  0.81560931    -0.32300
C480        C  0.22800151  0.35355451  0.78476691    -0.09900
C481        C  0.25396853  0.35085587  0.77533353    -0.28700
N482        N  0.34284572  0.37313019  0.84700910    -0.45300
C483        C  0.34534886  0.38203603  0.87813453    -0.04600
C484        C  0.31930015  0.38445716  0.88759858    -0.22000
H485        H  0.26023023  0.38128027  0.87544694     0.19900
H486        H  0.31384682  0.35543298  0.78701111     0.18700
H487        H  0.25780784  0.34219606  0.75294737     0.14900
H488        H  0.31501142  0.39158499  0.91074129     0.14800
H489        H  0.21551808  0.36727896  0.82913036     0.33000
H490        H  0.35932299  0.37075387  0.83322942     0.35700
C491        C  0.09252648  0.24340286  0.82163432     0.21300
C492        C  0.06876827  0.23072546  0.84491497    -0.38600
C493        C  0.05783917  0.19907335  0.85310429     0.20300
C494        C  0.06979778  0.18144579  0.83926296     0.22900
C495        C  0.09333093  0.19401311  0.81568929    -0.39100
C496        C  0.10419374  0.22567332  0.80740875     0.21700
N497        N  0.10648983  0.27276908  0.80948851    -0.32300
C498        C  0.12675814  0.27360784  0.78698120    -0.09900
C499        C  0.12630891  0.24480218  0.78515428    -0.28700
N500        N  0.05614418  0.15227129  0.85190379    -0.45300
C501        C  0.03511797  0.15123000  0.87365923    -0.04600
C502        C  0.03549463  0.17998263  0.87513117    -0.22000
H503        H  0.05951463  0.24452313  0.85588582     0.19900
H504        H  0.10253324  0.18019030  0.80467016     0.18700
H505        H  0.13971790  0.23854484  0.76914269     0.14900
H506        H  0.02178027  0.18621842  0.89072190     0.14800
H507        H  0.10182637  0.29086853  0.81535075     0.33000
H508        H  0.06090233  0.13419486  0.84625398     0.35700
C509        C  0.31450195  0.39137535  0.65378476     0.21300
C510        C  0.30055179  0.40304887  0.67509305    -0.38600
C511        C  0.27068871  0.38078387  0.68644476     0.20300
C512        C  0.25576801  0.34937939  0.67696984     0.22900
C513        C  0.26974801  0.33771761  0.65570335    -0.39100
C514        C  0.29971227  0.35993177  0.64454885     0.21700
N515        N  0.34305525  0.40754683  0.64028591    -0.32300
C516        C  0.34671678  0.38620411  0.62271241    -0.09900
C517        C  0.31995677  0.35629487  0.62437003    -0.28700
N518        N  0.22784614  0.33285569  0.69164233    -0.45300
C519        C  0.22526662  0.35376201  0.71093596    -0.04600
C520        C  0.25133583  0.38396726  0.70826762    -0.22000
H521        H  0.31229457  0.42753893  0.68265389     0.19900
H522        H  0.25831392  0.31307761  0.64870966     0.18700
H523        H  0.31602552  0.33482258  0.61263457     0.14900
H524        H  0.25570633  0.40511467  0.72101424     0.14800
H525        H  0.35931207  0.43156228  0.64319408     0.33000
H526        H  0.21188993  0.30868060  0.68943882     0.35700
C527        C  0.07258918  0.19770000  0.63887181     0.21300
C528        C  0.10063223  0.22674831  0.64113711    -0.38600
C529        C  0.10657241  0.24169026  0.67103158     0.20300
C530        C  0.08593987  0.22894605  0.69645292     0.22900
C531        C  0.05815156  0.19967674  0.69432370    -0.39100
C532        C  0.05243687  0.18451648  0.66459188     0.21700
N533        N  0.06154306  0.17881720  0.61316057    -0.32300
C534        C  0.03420520  0.15324246  0.62254078    -0.09900
C535        C  0.02802243  0.15586456  0.65470069    -0.28700
N536        N  0.09635137  0.24831893  0.72185570    -0.45300
C537        C  0.12439493  0.27324512  0.71294322    -0.04600
C538        C  0.13135343  0.26996725  0.68123598    -0.22000
H539        H  0.11659629  0.23696063  0.62112256     0.19900
H540        H  0.04216783  0.18948772  0.71432619     0.18700
H541        H  0.00870534  0.13888608  0.66922181     0.14900
H542        H  0.15177663  0.28604099  0.66738591     0.14800
H543        H  0.07203862  0.18318877  0.59058048     0.33000
H544        H  0.08417344  0.24505221  0.74327137     0.35700
C545        C  0.35431466  0.27203492  0.69825273     0.21300
C546        C  0.35409678  0.30066465  0.69573898    -0.38600
C547        C  0.36684584  0.31771970  0.66735500     0.20300
C548        C  0.37831726  0.30673656  0.64329195     0.22900
C549        C  0.37890030  0.27842711  0.64597987    -0.39100
C550        C  0.36662518  0.26166795  0.67442252     0.21700
N551        N  0.34341362  0.25125816  0.72254556    -0.32300
C552        C  0.34954421  0.22789095  0.71434044    -0.09900
C553        C  0.36374236  0.23352228  0.68434327    -0.28700
N554        N  0.38831827  0.32666312  0.61841618    -0.45300
C555        C  0.38349917  0.35087455  0.62647741    -0.04600
C556        C  0.37056962  0.34630380  0.65724602    -0.22000
H557        H  0.34472420  0.30901033  0.71443481     0.19900
H558        H  0.38819312  0.27003679  0.62724704     0.18700
H559        H  0.37110975  0.21906480  0.67146033     0.14900
H560        H  0.36493492  0.36180272  0.67069942     0.14800
H561        H  0.33187582  0.25268300  0.74294690     0.33000
H562        H  0.39748590  0.32359482  0.59700207     0.35700
C563        C  0.34717274  0.25483861  0.82562114     0.21300
C564        C  0.33724350  0.26683417  0.85088948    -0.38600
C565        C  0.35735633  0.29880306  0.85849699     0.20300
C566        C  0.38542546  0.31718365  0.84245665     0.22900
C567        C  0.39526241  0.30524851  0.81713555    -0.39100
C568        C  0.37497821  0.27345415  0.80927173     0.21700
N569        N  0.33182413  0.22557420  0.81305428    -0.32300
C570        C  0.34966638  0.22580887  0.78815010    -0.09900
C571        C  0.37699910  0.25511806  0.78531145    -0.28700
N572        N  0.40053500  0.34664347  0.85443498    -0.45300
C573        C  0.38178580  0.34720640  0.87793354    -0.04600
C574        C  0.35461778  0.31783588  0.88127806    -0.22000
H575        H  0.31532357  0.25244595  0.86344067     0.19900
H576        H  0.41696221  0.31975660  0.80427746     0.18700
H577        H  0.39547866  0.26219009  0.76767214     0.14900
H578        H  0.33576120  0.31126319  0.89835581     0.14800
H579        H  0.31006519  0.20690077  0.82025671     0.33000
H580        H  0.42224373  0.36531330  0.84708194     0.35700
C581        C  0.44718410  0.13404207  0.83735874     0.21300
C582        C  0.44304713  0.14352738  0.80697107    -0.38600
C583        C  0.41580615  0.14569084  0.80307139     0.20300
C584        C  0.39411085  0.13850658  0.82731336     0.22900
C585        C  0.39852012  0.12956251  0.85790881    -0.39100
C586        C  0.42599241  0.12779144  0.86196067     0.21700
N587        N  0.47040266  0.12887017  0.84673691    -0.32300
C588        C  0.46435302  0.11976581  0.87781780    -0.09900
C589        C  0.43676667  0.11887140  0.88807389    -0.28700
N590        N  0.36963602  0.14124810  0.81704647    -0.45300
C591        C  0.37578080  0.15045269  0.78598106    -0.04600
C592        C  0.40484090  0.15405036  0.77677628    -0.22000
H593        H  0.45961599  0.14849312  0.78767964     0.19900
H594        H  0.38163683  0.12400895  0.87700633     0.18700
H595        H  0.42569599  0.11199849  0.91134228     0.14900
H596        H  0.41706438  0.16233999  0.75426828     0.14800
H597        H  0.48838688  0.13017397  0.83228326     0.33000
H598        H  0.34980706  0.13661857  0.83042457     0.35700
C599        C  0.40733988  0.15233527  0.67705374     0.21300
C600        C  0.43149634  0.16338762  0.65420371    -0.38600
C601        C  0.44129590  0.14194768  0.64518072     0.20300
C602        C  0.42786561  0.11173302  0.65779396     0.22900
C603        C  0.40381730  0.10072552  0.68076868    -0.39100
C604        C  0.39415768  0.12223738  0.68994509     0.21700
N605        N  0.39447393  0.16840804  0.69014627    -0.32300
C606        C  0.37340328  0.14861576  0.71188917    -0.09900
C607        C  0.37218210  0.11943474  0.71223343    -0.28700
N608        N  0.44096026  0.09578855  0.64491491    -0.45300
C609        C  0.46311522  0.11609379  0.62423253    -0.04600
C610        C  0.46398045  0.14511415  0.62363262    -0.22000
H611        H  0.44199585  0.18699380  0.64431536     0.19900
H612        H  0.39351706  0.07721885  0.69087178     0.18700
H613        H  0.35772113  0.09928322  0.72729363     0.14900
H614        H  0.47884512  0.16550569  0.60903011     0.14800
H615        H  0.40037650  0.19174076  0.68540170     0.33000
H616        H  0.43520343  0.07251343  0.64982203     0.35700
C617        C  0.18145585  0.05228956  0.83500306     0.21300
C618        C  0.19502339  0.05604125  0.80455110    -0.38600
C619        C  0.22490711  0.08282602  0.80072332     0.20300
C620        C  0.23979362  0.10433837  0.82512311     0.22900
C621        C  0.22640327  0.10043374  0.85557354    -0.39100
C622        C  0.19679537  0.07353232  0.85954074     0.21700
N623        N  0.15318875  0.02910330  0.84482541    -0.32300
C624        C  0.15075758  0.03540719  0.87604566    -0.09900
C625        C  0.17754659  0.06304593  0.88591210    -0.28700
N626        N  0.26762973  0.12808689  0.81532228    -0.45300
C627        C  0.27085327  0.12183804  0.78435291    -0.04600
C628        C  0.24469367  0.09333529  0.77464808    -0.22000
H629        H  0.18321753  0.03939815  0.78530711     0.19900
H630        H  0.23816808  0.11715201  0.87476743     0.18700
H631        H  0.18230181  0.07406991  0.90928142     0.14900
H632        H  0.24061312  0.08117899  0.75202542     0.14800
H633        H  0.13638972  0.01071100  0.83080550     0.33000
H634        H  0.28316241  0.14756676  0.82901733     0.35700
C635        C  0.19634613  0.05772671  0.64494172     0.21300
C636        C  0.22753474  0.06628592  0.65219989    -0.38600
C637        C  0.24250024  0.09050545  0.67493791     0.20300
C638        C  0.22740879  0.10482272  0.68954482     0.22900
C639        C  0.19635843  0.09641545  0.68214535    -0.39100
C640        C  0.18154991  0.07249309  0.65920029     0.21700
N641        N  0.17709036  0.03577681  0.62382064    -0.32300
C642        C  0.15003266  0.03690818  0.62452094    -0.09900
C643        C  0.15195244  0.05953393  0.64621086    -0.28700
N644        N  0.24624519  0.12629962  0.71117203    -0.45300
C645        C  0.27344950  0.12554629  0.71036580    -0.04600
C646        C  0.27228221  0.10393087  0.68778638    -0.22000
H647        H  0.23925721  0.05492693  0.64101558     0.19900
H648        H  0.18458824  0.10767904  0.69342868     0.18700
H649        H  0.13411645  0.06577348  0.65150776     0.14900
H650        H  0.29037397  0.09806015  0.68244038     0.14800
H651        H  0.18220413  0.02144192  0.60932759     0.33000
H652        H  0.24079188  0.14014748  0.72603385     0.35700
C653        C  0.33100309  0.66558117  0.28035557     0.46400
H654        H  0.33082868  0.66533847  0.30682663    -0.02600
C655        C  0.33258640  0.66758787  0.21826271     0.46500
H656        H  0.33295931  0.66806182  0.19168553    -0.02600
C657        C  0.29906999  0.64283914  0.26474987    -0.16300
C658        C  0.34057619  0.69837827  0.26679648    -0.16000
C659        C  0.35462102  0.65690329  0.26567903    -0.16400
C660        C  0.30020446  0.64415051  0.23185951    -0.16400
C661        C  0.34139224  0.69950539  0.23394151    -0.15900
C662        C  0.35491260  0.65763825  0.23275452    -0.16300
O663        O  0.09727696  0.56379862  0.02879148    -0.70800
O664        O  0.06136734  0.59845343  0.46924650    -0.71000
O665        O  0.06420685  0.59674764  0.03432084    -0.70900
O666        O  0.09448353  0.56583658  0.46375804    -0.70900
O667        O  0.05794028  0.52078946  0.47932252    -0.70800
O668        O  0.01934196  0.55929679  0.01974340    -0.70900
O669        O  0.02795408  0.54965119  0.45905960    -0.70800
O670        O  0.04905533  0.53025200  0.03996031    -0.71000
V671        V  0.07986440  0.58175860  0.49905820     1.35200
V672        V  0.03893930  0.54035853  0.99950940     1.35200
C673        C  0.07766538  0.53904667  0.04407880     0.78400
C674        C  0.03672045  0.57836962  0.45426247     0.78500
C675        C  0.03423738  0.58235372  0.03739572     0.78400
C676        C  0.08037435  0.53567638  0.46112241     0.78300
O677        O  0.43996844  0.96226060  0.01999942    -0.70800
O678        O  0.47869452  0.53875338  0.47853569    -0.71000
O679        O  0.47003972  0.52137108  0.03943197    -0.70900
O680        O  0.44871568  0.97958405  0.45917824    -0.70900
O681        O  0.40058629  0.96516399  0.47045835    -0.70800
O682        O  0.43683576  0.53681433  0.02872228    -0.70900
O683        O  0.43385215  0.53118650  0.46382261    -0.70800
O684        O  0.40369925  0.97128364  0.03532343    -0.71000
V685        V  0.45901124  0.50050927  0.99928279     1.35200
V686        V  0.41819598  0.50111438  0.49951648     1.37300
C687        C  0.41773966  0.95524563  0.03834142     0.78400
C688        C  0.46383146  0.54674379  0.46074351     0.78500
C689        C  0.46139819  0.54145542  0.04380986     0.78400
C690        C  0.42006893  0.95963847  0.45545651     0.78300
O691        O  0.03427092  0.93753499  0.47057104    -0.70800
O692        O  0.46344293  0.90269735  0.02988376    -0.71000
O693        O  0.46868614  0.90467505  0.46473132    -0.70900
O694        O  0.02915081  0.93531421  0.03565651    -0.70900
O695        O  0.03705402  0.98044643  0.02071166    -0.70800
O696        O  0.46101866  0.94226221  0.47904689    -0.70900
O697        O  0.47819164  0.95142505  0.04009386    -0.70800
O698        O  0.01972790  0.97147935  0.45969126    -0.71000
V699        V  0.49887407  0.91954827  0.00022961     1.35200
V700        V  0.99900821  0.96100401  0.99990298     1.35200
C701        C  0.03936134  0.96235784  0.45532088     0.78400
C702        C  0.45840051  0.92270793  0.04473397     0.78500
C703        C  0.45314258  0.91919475  0.46139876     0.78400
C704        C  0.04492704  0.96546628  0.03854383     0.78300
C705        C  0.01525212  0.62555855  0.10159469     0.03300
C706        C  0.48203533  0.60727441  0.10363071     0.03200
C707        C  0.46574876  0.58017229  0.08467639    -0.17300
C708        C  0.48141907  0.57072360  0.06326331     0.03300
C709        C  0.01539117  0.58989631  0.06041133     0.03200
C710        C  0.03132790  0.61667399  0.07983481    -0.17300
H711        H  0.05672983  0.63044255  0.07837665     0.05300
H712        H  0.44032686  0.56631057  0.08642749     0.05300
C713        C  0.37513829  0.89476325  0.10341634     0.03300
C714        C  0.39222699  0.87834720  0.10499246     0.03200
C715        C  0.41890610  0.88825903  0.08538044    -0.17300
C716        C  0.42902557  0.91371444  0.06421134     0.03300
C717        C  0.41062496  0.92952869  0.06194310     0.03200
C718        C  0.38469939  0.92006900  0.08211947    -0.17300
H719        H  0.37110020  0.93202479  0.08061847     0.05300
H720        H  0.43268866  0.87654427  0.08715695     0.05300
C721        C  0.48306780  0.60958507  0.39734045     0.03300
C722        C  0.01615844  0.62369039  0.39445916     0.03200
C723        C  0.03233674  0.61243051  0.41293127    -0.17300
C724        C  0.01668880  0.58750637  0.43458276     0.03300
C725        C  0.48274834  0.57302946  0.43769133     0.03200
C726        C  0.46695187  0.58441930  0.41887719    -0.17300
H727        H  0.44161931  0.57329035  0.42089775     0.05300
H728        H  0.05769937  0.62363506  0.41075670     0.05300
C729        C  0.39060504  0.87516060  0.39822290     0.03300
C730        C  0.37348039  0.89146427  0.39837168     0.03200
C731        C  0.38378175  0.91839366  0.41771400    -0.17300
C732        C  0.41050990  0.92958546  0.43696228     0.03300
C733        C  0.42672744  0.91147648  0.43847969     0.03200
C734        C  0.41675559  0.88519714  0.41833204    -0.17300
H735        H  0.42909434  0.87192157  0.41869272     0.05300
H736        H  0.37138507  0.93160047  0.41698416     0.05300
C737        C  0.12275298  0.51649293  0.39654821     0.03300
C738        C  0.10479021  0.98311149  0.39489003     0.03200
C739        C  0.07807608  0.96658716  0.41424981    -0.17300
C740        C  0.06861402  0.98233234  0.43568155     0.03300
C741        C  0.08756262  0.51659485  0.43805470     0.03200
C742        C  0.11388509  0.53265631  0.41824069    -0.17300
H743        H  0.12752853  0.55822871  0.41955165     0.05300
H744        H  0.06451941  0.94099421  0.41270418     0.05300
C745        C  0.12274638  0.51799170  0.10358665     0.03300
C746        C  0.10702312  0.98449580  0.10254006     0.03200
C747        C  0.08182910  0.96836748  0.08113080    -0.17300
C748        C  0.07145638  0.98448911  0.06131562     0.03300
C749        C  0.08697430  0.51881426  0.06336862     0.03200
C750        C  0.11255241  0.53451109  0.08409827    -0.17300
H751        H  0.12468576  0.56013877  0.08526280     0.05300
H752        H  0.06960203  0.94276909  0.08027058     0.05300
C753        C  0.16561286  0.83382996  0.21867420     0.46400
H754        H  0.16552866  0.83416434  0.19215741    -0.02600
C755        C  0.16716354  0.83406554  0.28077227     0.46500
H756        H  0.16725849  0.83373884  0.30732449    -0.02600
C757        C  0.14429358  0.80110439  0.23339686    -0.16300
C758        C  0.19834314  0.84476286  0.23238758    -0.16000
C759        C  0.15504507  0.85576118  0.23393779    -0.16400
C760        C  0.14522654  0.80131594  0.26629045    -0.16400
C761        C  0.19947671  0.84501007  0.26525038    -0.15900
C762        C  0.15574815  0.85561373  0.26681853    -0.16300
C763        C  0.12061949  0.92640644  0.14069846     0.21300
C764        C  0.12100899  0.89792487  0.14321813    -0.38600
C765        C  0.13092201  0.89247727  0.17276256     0.20300
C766        C  0.14016299  0.91393455  0.19769534     0.22900
C767        C  0.13930568  0.94221390  0.19535048    -0.39100
C768        C  0.12901830  0.94748544  0.16589914     0.21700
N769        N  0.11239939  0.93717862  0.11507047    -0.32300
C770        C  0.11536450  0.96535053  0.12388066    -0.09900
C771        C  0.12534784  0.97230449  0.15571325    -0.28700
N772        N  0.14998412  0.90388426  0.22269130    -0.45300
C773        C  0.14618730  0.87533326  0.21397328    -0.04600
C774        C  0.13448730  0.86760443  0.18284883    -0.22000
H775        H  0.11428033  0.88132864  0.12355583     0.19900
H776        H  0.14630668  0.95894134  0.21492185     0.18700
H777        H  0.12885852  0.99237837  0.16989398     0.14900
H778        H  0.12939331  0.84668261  0.16924703     0.14800
H779        H  0.10540177  0.92601546  0.09283594     0.33000
H780        H  0.15988931  0.91656674  0.24368169     0.35700
C781        C  0.14935187  0.90713229  0.32314890     0.21300
C782        C  0.16000067  0.93091593  0.34653594    -0.38600
C783        C  0.13923037  0.94181092  0.35431879     0.20300
C784        C  0.10998994  0.92971329  0.34006923     0.22900
C785        C  0.09946090  0.90614336  0.31647057    -0.39100
C786        C  0.12030712  0.89538593  0.30855256     0.21700
N787        N  0.16504191  0.89352861  0.31090081    -0.32300
C788        C  0.14614809  0.87352927  0.28792036    -0.09900
C789        C  0.11780945  0.87360363  0.28602955    -0.28700
N790        N  0.09428968  0.94329158  0.35233988    -0.45300
C791        C  0.11379392  0.96438282  0.37428436    -0.04600
C792        C  0.14209154  0.96424419  0.37621014    -0.22000
H793        H  0.18280391  0.94030303  0.35775969     0.19900
H794        H  0.07675918  0.89692982  0.30506700     0.18700
H795        H  0.09853722  0.86031758  0.26966618     0.14900
H796        H  0.16167240  0.97808830  0.39205721     0.14800
H797        H  0.18771875  0.89846602  0.31683887     0.33000
H798        H  0.07162796  0.93840450  0.34638254     0.35700
C799        C  0.25878072  0.86705077  0.32571460     0.21300
C800        C  0.27176528  0.87580693  0.35642493    -0.38600
C801        C  0.30050381  0.87670166  0.36096294     0.20300
C802        C  0.31540461  0.86980983  0.33672928     0.22900
C803        C  0.30240273  0.86107045  0.30599309    -0.39100
C804        C  0.27343061  0.85977756  0.30157814     0.21700
N805        N  0.23120776  0.86342164  0.31560910    -0.32300
C806        C  0.22800124  0.85355376  0.28476681    -0.09900
C807        C  0.25396816  0.85085492  0.27533347    -0.28700
N808        N  0.34284592  0.87313008  0.34700884    -0.45300
C809        C  0.34534912  0.88203635  0.37813422    -0.04600
C810        C  0.31930045  0.88445766  0.38759817    -0.22000
H811        H  0.26023048  0.88128058  0.37544649     0.19900
H812        H  0.31384650  0.85543204  0.28701113     0.18700
H813        H  0.25780738  0.84219503  0.25294733     0.14900
H814        H  0.31501179  0.89158576  0.41074080     0.14800
H815        H  0.21551814  0.86727871  0.32913008     0.33000
H816        H  0.35932308  0.87075348  0.33322926     0.35700
C817        C  0.09252590  0.74340273  0.32163367     0.21300
C818        C  0.06876805  0.73072559  0.34491469    -0.38600
C819        C  0.05783900  0.69907353  0.35310414     0.20300
C820        C  0.06979731  0.68144580  0.33926261     0.22900
C821        C  0.09333009  0.69401289  0.31568854    -0.39100
C822        C  0.10419285  0.72567305  0.30740787     0.21700
N823        N  0.10648938  0.77276884  0.30948784    -0.32300
C824        C  0.12675744  0.77360761  0.28698038    -0.09900
C825        C  0.12630790  0.74480184  0.28515325    -0.28700
N826        N  0.05614383  0.65227143  0.35190369    -0.45300
C827        C  0.03511799  0.65123033  0.37365945    -0.04600
C828        C  0.03549478  0.67998302  0.37513139    -0.22000
H829        H  0.05951468  0.74452343  0.35588575     0.19900
H830        H  0.10253221  0.68018996  0.30466927     0.18700
H831        H  0.13971675  0.73854444  0.26914155     0.14900
H832        H  0.02178068  0.68621896  0.39072229     0.14800
H833        H  0.10182623  0.79086845  0.31535036     0.33000
H834        H  0.06090179  0.63419489  0.34625379     0.35700
C835        C  0.31450129  0.89137515  0.15378387     0.21300
C836        C  0.30055111  0.90304868  0.17509211    -0.38600
C837        C  0.27068829  0.88078357  0.18644432     0.20300
C838        C  0.25576781  0.84937893  0.17696989     0.22900
C839        C  0.26974783  0.83771714  0.15570346    -0.39100
C840        C  0.29971184  0.85993142  0.14454846     0.21700
N841        N  0.34305450  0.90754683  0.14028474    -0.32300
C842        C  0.34671611  0.88620392  0.12271155    -0.09900
C843        C  0.31995631  0.85629450  0.12436961    -0.28700
N844        N  0.22784606  0.83285509  0.19164266    -0.45300
C845        C  0.22526649  0.85376166  0.21093595    -0.04600
C846        C  0.25133547  0.88396704  0.20826718    -0.22000
H847        H  0.31229369  0.92753884  0.18265254     0.19900
H848        H  0.25831395  0.81307706  0.14871016     0.18700
H849        H  0.31602525  0.83482209  0.11263453     0.14900
H850        H  0.25570578  0.90511460  0.22101341     0.14800
H851        H  0.35931114  0.93156236  0.14319260     0.33000
H852        H  0.21188999  0.80867994  0.18943945     0.35700
C853        C  0.07258885  0.69769985  0.13887163     0.21300
C854        C  0.10063175  0.72674834  0.14113667    -0.38600
C855        C  0.10657171  0.74169070  0.17103092     0.20300
C856        C  0.08593907  0.72894669  0.19645222     0.22900
C857        C  0.05815092  0.69967724  0.19432320    -0.39100
C858        C  0.05243648  0.68451658  0.16459166     0.21700
N859        N  0.06154286  0.67881663  0.11316074    -0.32300
C860        C  0.03420508  0.65324193  0.12254098    -0.09900
C861        C  0.02802222  0.65586442  0.15470074    -0.28700
N862        N  0.09635057  0.74831969  0.22185489    -0.45300
C863        C  0.12439425  0.77324570  0.21294247    -0.04600
C864        C  0.13135276  0.76996771  0.18123527    -0.22000
H865        H  0.11659591  0.73696044  0.12112214     0.19900
H866        H  0.04216717  0.68948836  0.21432571     0.18700
H867        H  0.00870513  0.63888609  0.16922193     0.14900
H868        H  0.15177615  0.78604124  0.16738530     0.14800
H869        H  0.07203845  0.68318801  0.09058067     0.33000
H870        H  0.08417267  0.74505302  0.24327058     0.35700
C871        C  0.35431499  0.77203549  0.19825284     0.21300
C872        C  0.35409690  0.80066513  0.19573898    -0.38600
C873        C  0.36684579  0.81772007  0.16735491     0.20300
C874        C  0.37831724  0.80673692  0.14329192     0.22900
C875        C  0.37890052  0.77842762  0.14597993    -0.39100
C876        C  0.36662557  0.76166857  0.17442264     0.21700
N877        N  0.34341400  0.75125872  0.22254569    -0.32300
C878        C  0.34954467  0.72789156  0.21434053    -0.09900
C879        C  0.36374287  0.73352296  0.18434339    -0.28700
N880        N  0.38831799  0.82666332  0.11841607    -0.45300
C881        C  0.38349878  0.85087467  0.12647710    -0.04600
C882        C  0.37056933  0.84630404  0.15724574    -0.22000
H883        H  0.34472426  0.80901077  0.21443477     0.19900
H884        H  0.38819336  0.77003730  0.12724710     0.18700
H885        H  0.37111032  0.71906553  0.17146044     0.14900
H886        H  0.36493456  0.86180297  0.17069903     0.14800
H887        H  0.33187614  0.75268350  0.24294701     0.33000
H888        H  0.39748560  0.82359496  0.09700198     0.35700
C889        C  0.34717264  0.75483887  0.32562103     0.21300
C890        C  0.33724328  0.76683448  0.35088922    -0.38600
C891        C  0.35735626  0.79880328  0.35849698     0.20300
C892        C  0.38542565  0.81718375  0.34245700     0.22900
C893        C  0.39526274  0.80524858  0.31713606    -0.39100
C894        C  0.37497841  0.77345433  0.30927198     0.21700
N895        N  0.33182386  0.72557445  0.31305405    -0.32300
C896        C  0.34966648  0.72580920  0.28815011    -0.09900
C897        C  0.37699942  0.75511828  0.28531176    -0.28700
N898        N  0.40053531  0.84664353  0.35443544    -0.45300
C899        C  0.38178587  0.84720652  0.37793371    -0.04600
C900        C  0.35461762  0.81783612  0.38127796    -0.22000
H901        H  0.31532317  0.75244637  0.36344010     0.19900
H902        H  0.41696275  0.81975658  0.30427826     0.18700
H903        H  0.39547921  0.76219026  0.26767269     0.14900
H904        H  0.33576084  0.81126354  0.39835543     0.14800
H905        H  0.31006474  0.70690112  0.32025619     0.33000
H906        H  0.42224420  0.86531325  0.34708263     0.35700
C907        C  0.44718381  0.63404193  0.33735898     0.21300
C908        C  0.44304715  0.64352767  0.30697143    -0.38600
C909        C  0.41580625  0.64569125  0.30307168     0.20300
C910        C  0.39411069  0.63850670  0.32731349     0.22900
C911        C  0.39851969  0.62956222  0.35790885    -0.39100
C912        C  0.42599192  0.62779104  0.36196080     0.21700
N913        N  0.47040237  0.62886995  0.34673708    -0.32300
C914        C  0.46435247  0.61976536  0.37781795    -0.09900
C915        C  0.43676599  0.61887078  0.38807399    -0.28700
N916        N  0.36963585  0.64124829  0.31704658    -0.45300
C917        C  0.37578106  0.65045324  0.28598121    -0.04600
C918        C  0.40484129  0.65405107  0.27677658    -0.22000
H919        H  0.45961616  0.64849362  0.28768014     0.19900
H920        H  0.38163625  0.62400846  0.37700623     0.18700
H921        H  0.42569520  0.61199772  0.41134233     0.14900
H922        H  0.41706497  0.66234091  0.25426869     0.14800
H923        H  0.48838667  0.63017391  0.33228346     0.33000
H924        H  0.34980675  0.63661856  0.33042451     0.35700
C925        C  0.40734102  0.65233593  0.17705427     0.21300
C926        C  0.43149760  0.66338816  0.15420435    -0.38600
C927        C  0.44129679  0.64194795  0.14518121     0.20300
C928        C  0.42786607  0.61173316  0.15779423     0.22900
C929        C  0.40381770  0.60072583  0.18076887    -0.39100
C930        C  0.39415843  0.62223794  0.18994541     0.21700
N931        N  0.39447514  0.66840881  0.19014673    -0.32300
C932        C  0.37340412  0.64861649  0.21188934    -0.09900
C933        C  0.37218270  0.61943536  0.21223353    -0.28700
N934        N  0.44096035  0.59578837  0.14491503    -0.45300
C935        C  0.46311552  0.61609356  0.12423275    -0.04600
C936        C  0.46398123  0.64511418  0.12363306    -0.22000
H937        H  0.44199739  0.68699441  0.14431613     0.19900
H938        H  0.39351710  0.57721906  0.19087176     0.18700
H939        H  0.35772139  0.59928376  0.22729349     0.14900
H940        H  0.47884616  0.66550575  0.10903070     0.14800
H941        H  0.40037791  0.69174160  0.18540221     0.33000
H942        H  0.43520318  0.57251312  0.14982201     0.35700
C943        C  0.18145599  0.55229030  0.33500264     0.21300
C944        C  0.19502370  0.55604190  0.30455077    -0.38600
C945        C  0.22490731  0.58282678  0.30072290     0.20300
C946        C  0.23979361  0.60433941  0.32512253     0.22900
C947        C  0.22640311  0.60043496  0.35557288    -0.39100
C948        C  0.19679531  0.57353338  0.35954018     0.21700
N949        N  0.15318891  0.52910374  0.34482494    -0.32300
C950        C  0.15075770  0.53540791  0.37604520    -0.09900
C951        C  0.17754653  0.56304700  0.38591154    -0.28700
N952        N  0.26762978  0.62808792  0.31532174    -0.45300
C953        C  0.27085352  0.62183872  0.28435252    -0.04600
C954        C  0.24469404  0.59333584  0.27464776    -0.22000
H955        H  0.18321806  0.53939857  0.28530693     0.19900
H956        H  0.23816778  0.61715342  0.37476665     0.18700
H957        H  0.18230165  0.57407118  0.40928078     0.14900
H958        H  0.24061372  0.58117935  0.25202523     0.14800
H959        H  0.13639007  0.51071123  0.33080509     0.33000
H960        H  0.28316235  0.64756791  0.32901670     0.35700
C961        C  0.19634709  0.55772779  0.14494054     0.21300
C962        C  0.22753575  0.56628712  0.15219865    -0.38600
C963        C  0.24250110  0.59050638  0.17493697     0.20300
C964        C  0.22740947  0.60482330  0.18954418     0.22900
C965        C  0.19635907  0.59641596  0.18214474    -0.39100
C966        C  0.18155071  0.57249385  0.15919940     0.21700
N967        N  0.17709131  0.53577797  0.12381947    -0.32300
C968        C  0.15003346  0.53690898  0.12451998    -0.09900
C969        C  0.15195317  0.55953453  0.14621008    -0.28700
N970        N  0.24624573  0.62629992  0.21117164    -0.45300
C971        C  0.27345013  0.62554682  0.21036535    -0.04600
C972        C  0.27228304  0.60393179  0.18778556    -0.22000
H973        H  0.23925836  0.55492834  0.14101412     0.19900
H974        H  0.18458872  0.60767925  0.19342835     0.18700
H975        H  0.13411702  0.56577377  0.15150728     0.14900
H976        H  0.29037491  0.59806129  0.18243938     0.14800
H977        H  0.18220515  0.52144320  0.10932628     0.33000
H978        H  0.24079226  0.64014751  0.22603369     0.35700
C979        C  0.33100269  0.66558057  0.78035561     0.46400
H980        H  0.33082831  0.66533796  0.80682666    -0.02600
C981        C  0.33258597  0.66758709  0.71826273     0.46500
H982        H  0.33295884  0.66806094  0.69168556    -0.02600
C983        C  0.29906955  0.64283856  0.76474992    -0.16300
C984        C  0.34057590  0.69837770  0.76679639    -0.16000
C985        C  0.35462052  0.65690252  0.76567911    -0.16400
C986        C  0.30020404  0.64414991  0.73185958    -0.16400
C987        C  0.34139195  0.69950468  0.73394139    -0.15900
C988        C  0.35491202  0.65763735  0.73275460    -0.16300
O989        O  0.09727701  0.56379864  0.52879210    -0.70800
O990        O  0.06136682  0.59845313  0.96924620    -0.71000
O991        O  0.06420705  0.59674785  0.53432112    -0.70900
O992        O  0.09448302  0.56583635  0.96375746    -0.70900
O993        O  0.05794000  0.52078926  0.97932228    -0.70800
O994        O  0.01934220  0.55929703  0.51974353    -0.70900
O995        O  0.02795361  0.54965084  0.95905942    -0.70800
O996        O  0.04905528  0.53025199  0.53996056    -0.71000
V997        V  0.07986409  0.58175842  0.99905775     1.35200
V998        V  0.03893955  0.54035873  0.49950961     1.35200
C999        C  0.07766530  0.53904663  0.54407928     0.78400
C1000       C  0.03671994  0.57836926  0.95426221     0.78500
C1001       C  0.03423758  0.58235400  0.53739583     0.78400
C1002       C  0.08037388  0.53567613  0.96112196     0.78300
O1003       O  0.43996859  0.96226056  0.51999986    -0.70800
O1004       O  0.47869439  0.53875330  0.97853578    -0.71000
O1005       O  0.47003989  0.52137135  0.53943192    -0.70900
O1006       O  0.44871571  0.97958414  0.95917783    -0.70900
O1007       O  0.40058633  0.96516410  0.97045795    -0.70800
O1008       O  0.43683588  0.53681454  0.52872223    -0.70900
O1009       O  0.43385202  0.53118636  0.96382263    -0.70800
O1010       O  0.40369924  0.97128338  0.53532385    -0.71000
V1011       V  0.45901133  0.50050941  0.49928279     1.35200
V1012       V  0.41819588  0.50111420  0.99951649     1.37300
C1013       C  0.41773977  0.95524547  0.53834183     0.78400
C1014       C  0.46383133  0.54674369  0.96074355     0.78500
C1015       C  0.46139833  0.54145567  0.54380980     0.78400
C1016       C  0.42006896  0.95963854  0.95545615     0.78300
O1017       O  0.03427089  0.93753459  0.97057158    -0.70800
O1018       O  0.46344293  0.90269712  0.52988380    -0.71000
O1019       O  0.46868619  0.90467512  0.96473125    -0.70900
O1020       O  0.02915100  0.93531442  0.53565593    -0.70900
O1021       O  0.03705411  0.98044670  0.52071141    -0.70800
O1022       O  0.46101882  0.94226242  0.97904656    -0.70900
O1023       O  0.47819168  0.95142480  0.54009411    -0.70800
O1024       O  0.01972781  0.97147884  0.95969147    -0.71000
V1025       V  0.49887404  0.91954817  0.50022964     1.35200
V1026       V  0.99900830  0.96100432  0.49990277     1.35200
C1027       C  0.03936130  0.96235736  0.95532126     0.78400
C1028       C  0.45840055  0.92270767  0.54473414     0.78500
C1029       C  0.45314272  0.91919489  0.96139851     0.78400
C1030       C  0.04492720  0.96546647  0.53854339     0.78300
C1031       C  0.01525214  0.62555925  0.60159417     0.03300
C1032       C  0.48203537  0.60727453  0.60363081     0.03200
C1033       C  0.46574885  0.58017244  0.58467645    -0.17300
C1034       C  0.48141918  0.57072388  0.56326327     0.03300
C1035       C  0.01539132  0.58989674  0.56041119     0.03200
C1036       C  0.03132798  0.61667461  0.57983444    -0.17300
H1037       H  0.05672992  0.63044321  0.57837629     0.05300
H1038       H  0.44032696  0.56631061  0.58642762     0.05300
C1039       C  0.37513853  0.89476300  0.60341670     0.03300
C1040       C  0.39222709  0.87834676  0.60499255     0.03200
C1041       C  0.41890616  0.88825862  0.58538048    -0.17300
C1042       C  0.42902567  0.91371415  0.56421154     0.03300
C1043       C  0.41062513  0.92952848  0.56194346     0.03200
C1044       C  0.38469968  0.92006885  0.58211995    -0.17300
H1045       H  0.37110056  0.93202473  0.58061910     0.05300
H1046       H  0.43268865  0.87654376  0.58715683     0.05300
C1047       C  0.48306804  0.60958542  0.89734078     0.03300
C1048       C  0.01615798  0.62369001  0.89445882     0.03200
C1049       C  0.03233623  0.61243003  0.91293086    -0.17300
C1050       C  0.01668829  0.58750597  0.93458246     0.03300
C1051       C  0.48274826  0.57302938  0.93769140     0.03200
C1052       C  0.46695195  0.58441948  0.91887735    -0.17300
H1053       H  0.44161939  0.57329065  0.92089788     0.05300
H1054       H  0.05769886  0.62363451  0.91075622     0.05300
C1055       C  0.39060531  0.87516073  0.89822243     0.03300
C1056       C  0.37348048  0.89146422  0.89837150     0.03200
C1057       C  0.38378176  0.91839356  0.91771385    -0.17300
C1058       C  0.41050998  0.92958549  0.93696201     0.03300
C1059       C  0.42672764  0.91147661  0.93847934     0.03200
C1060       C  0.41675594  0.88519738  0.91833152    -0.17300
H1061       H  0.42909482  0.87192193  0.91869209     0.05300
H1062       H  0.37138495  0.93160026  0.91698412     0.05300
C1063       C  0.12275225  0.51649235  0.89654781     0.03300
C1064       C  0.10479021  0.98311104  0.89489047     0.03200
C1065       C  0.07807609  0.96658668  0.91425024    -0.17300
C1066       C  0.06861400  0.98233185  0.93568196     0.03300
C1067       C  0.08756201  0.51659451  0.93805424     0.03200
C1068       C  0.11388438  0.53265586  0.91824013    -0.17300
H1069       H  0.12752783  0.55822828  0.91955091     0.05300
H1070       H  0.06451945  0.94099373  0.91270460     0.05300
C1071       C  0.12274584  0.51799129  0.60358734     0.03300
C1072       C  0.10702273  0.98449533  0.60253991     0.03200
C1073       C  0.08182900  0.96836727  0.58113032    -0.17300
C1074       C  0.07145650  0.98448914  0.56131522     0.03300
C1075       C  0.08697403  0.51881412  0.56336918     0.03200
C1076       C  0.11255196  0.53451081  0.58409903    -0.17300
H1077       H  0.12468529  0.56013848  0.58526371     0.05300
H1078       H  0.06960190  0.94276888  0.58026989     0.05300
C1079       C  0.16561301  0.83382990  0.71867428     0.46400
H1080       H  0.16552881  0.83416419  0.69215749    -0.02600
C1081       C  0.16716368  0.83406569  0.78077234     0.46500
H1082       H  0.16725863  0.83373909  0.80732457    -0.02600
C1083       C  0.14429385  0.80110435  0.73339705    -0.16300
C1084       C  0.19834331  0.84476303  0.73238765    -0.16000
C1085       C  0.15504508  0.85576107  0.73393771    -0.16400
C1086       C  0.14522676  0.80131600  0.76629066    -0.16400
C1087       C  0.19947689  0.84501034  0.76525047    -0.15900
C1088       C  0.15574816  0.85561371  0.76681846    -0.16300
C1089       C  0.12061873  0.92640572  0.64069827     0.21300
C1090       C  0.12100877  0.89792441  0.64321783    -0.38600
C1091       C  0.13092171  0.89247679  0.67276231     0.20300
C1092       C  0.14016214  0.91393385  0.69769522     0.22900
C1093       C  0.13930422  0.94221289  0.69535057    -0.39100
C1094       C  0.12901692  0.94748443  0.66589919     0.21700
N1095       N  0.11239888  0.93717801  0.61507008    -0.32300
C1096       C  0.11536365  0.96534977  0.62388058    -0.09900
C1097       C  0.12534634  0.97230341  0.65571339    -0.28700
N1098       N  0.14998346  0.90388373  0.72269111    -0.45300
C1099       C  0.14618721  0.87533300  0.71397306    -0.04600
C1100       C  0.13448748  0.86760421  0.68284851    -0.22000
H1101       H  0.11428066  0.88132843  0.62355537     0.19900
H1102       H  0.14630482  0.95894014  0.71492207     0.18700
H1103       H  0.12885669  0.99237713  0.66989424     0.14900
H1104       H  0.12939394  0.84668258  0.66924662     0.14800
H1105       H  0.10540182  0.92601517  0.59283536     0.33000
H1106       H  0.15988848  0.91656627  0.74368151     0.35700
C1107       C  0.14935201  0.90713235  0.82314875     0.21300
C1108       C  0.16000073  0.93091579  0.84653599    -0.38600
C1109       C  0.13923048  0.94181084  0.85431883     0.20300
C1110       C  0.10999023  0.92971354  0.84006899     0.22900
C1111       C  0.09946126  0.90614385  0.81647010    -0.39100
C1112       C  0.12030737  0.89538625  0.80855220     0.21700
N1113       N  0.16504201  0.89352854  0.81090080    -0.32300
C1114       C  0.14614817  0.87352933  0.78792023    -0.09900
C1115       C  0.11780963  0.87360390  0.78602924    -0.28700
N1116       N  0.09428995  0.94329172  0.85233979    -0.45300
C1117       C  0.11379396  0.96438251  0.87428468    -0.04600
C1118       C  0.14209151  0.96424376  0.87621053    -0.22000
H1119       H  0.18280383  0.94030261  0.85775998     0.19900
H1120       H  0.07675963  0.89693050  0.80506638     0.18700
H1121       H  0.09853744  0.86031798  0.76966578     0.14900
H1122       H  0.16167221  0.97808756  0.89205789     0.14800
H1123       H  0.18771874  0.89846574  0.81683902     0.33000
H1124       H  0.07162831  0.93840483  0.84638230     0.35700
C1125       C  0.25878083  0.86705109  0.82571474     0.21300
C1126       C  0.27176529  0.87580690  0.85642515    -0.38600
C1127       C  0.30050384  0.87670166  0.86096307     0.20300
C1128       C  0.31540475  0.86981020  0.83672925     0.22900
C1129       C  0.30240303  0.86107118  0.80599299    -0.39100
C1130       C  0.27343089  0.85977823  0.80157814     0.21700
N1131       N  0.23120777  0.86342187  0.81560933    -0.32300
C1132       C  0.22800144  0.85355423  0.78476692    -0.09900
C1133       C  0.25396852  0.85085570  0.77533347    -0.28700
N1134       N  0.34284598  0.87313042  0.84700879    -0.45300
C1135       C  0.34534914  0.88203627  0.87813422    -0.04600
C1136       C  0.31930041  0.88445736  0.88759833    -0.22000
H1137       H  0.26023038  0.88128024  0.87544684     0.19900
H1138       H  0.31384692  0.85543304  0.78701091     0.18700
H1139       H  0.25780786  0.84219596  0.75294728     0.14900
H1140       H  0.31501170  0.89158518  0.91074107     0.14800
H1141       H  0.21551801  0.86727864  0.82913041     0.33000
H1142       H  0.35932324  0.87075409  0.83322909     0.35700
C1143       C  0.09252583  0.74340270  0.82163376     0.21300
C1144       C  0.06876780  0.73072546  0.84491461    -0.38600
C1145       C  0.05783861  0.69907331  0.85310393     0.20300
C1146       C  0.06979697  0.68144560  0.83926240     0.22900
C1147       C  0.09332991  0.69401281  0.81568850    -0.39100
C1148       C  0.10419282  0.72567305  0.80740799     0.21700
N1149       N  0.10648945  0.77276888  0.80948804    -0.32300
C1150       C  0.12675763  0.77360770  0.78698066    -0.09900
C1151       C  0.12630803  0.74480190  0.78515352    -0.28700
N1152       N  0.05614345  0.65227111  0.85190335    -0.45300
C1153       C  0.03511753  0.65123000  0.87365909    -0.04600
C1154       C  0.03549430  0.67998271  0.87513107    -0.22000
H1155       H  0.05951441  0.74452328  0.85588567     0.19900
H1156       H  0.10253207  0.68018993  0.80466925     0.18700
H1157       H  0.13971690  0.73854450  0.76914186     0.14900
H1158       H  0.02178017  0.68621863  0.89072198     0.14800
H1159       H  0.10182627  0.79086848  0.81535052     0.33000
H1160       H  0.06090147  0.63419461  0.84625345     0.35700
C1161       C  0.31450150  0.89137517  0.65378399     0.21300
C1162       C  0.30055128  0.90304882  0.67509204    -0.38600
C1163       C  0.27068842  0.88078376  0.68644423     0.20300
C1164       C  0.25576796  0.84937908  0.67696992     0.22900
C1165       C  0.26974800  0.83771721  0.65570362    -0.39100
C1166       C  0.29971205  0.85993142  0.64454867     0.21700
N1167       N  0.34305477  0.90754673  0.64028497    -0.32300
C1168       C  0.34671641  0.88620375  0.62271196    -0.09900
C1169       C  0.31995656  0.85629438  0.62437001    -0.28700
N1170       N  0.22784625  0.83285528  0.69164275    -0.45300
C1171       C  0.22526666  0.85376186  0.71093598    -0.04600
C1172       C  0.25133560  0.88396727  0.70826707    -0.22000
H1173       H  0.31229388  0.92753900  0.68265241     0.19900
H1174       H  0.25831413  0.81307709  0.64871044     0.18700
H1175       H  0.31602547  0.83482194  0.61263500     0.14900
H1176       H  0.25570591  0.90511484  0.72101325     0.14800
H1177       H  0.35931143  0.93156227  0.64319277     0.33000
H1178       H  0.21189022  0.80868011  0.68943966     0.35700
C1179       C  0.07258900  0.69770029  0.63887138     0.21300
C1180       C  0.10063205  0.72674862  0.64113667    -0.38600
C1181       C  0.10657209  0.74169076  0.67103104     0.20300
C1182       C  0.08593940  0.72894672  0.69645228     0.22900
C1183       C  0.05815109  0.69967741  0.69432309    -0.39100
C1184       C  0.05243656  0.68451695  0.66459141     0.21700
N1185       N  0.06154302  0.67881731  0.61316022    -0.32300
C1186       C  0.03420508  0.65324263  0.62254050    -0.09900
C1187       C  0.02802218  0.65586495  0.65470033    -0.28700
N1188       N  0.09635092  0.74831960  0.72185502    -0.45300
C1189       C  0.12439465  0.77324559  0.71294270    -0.04600
C1190       C  0.13135322  0.76996767  0.68123551    -0.22000
H1191       H  0.11659624  0.73696078  0.62112220     0.19900
H1192       H  0.04216730  0.68948851  0.71432556     0.18700
H1193       H  0.00870504  0.63888658  0.66922148     0.14900
H1194       H  0.15177661  0.78604124  0.66738557     0.14800
H1195       H  0.07203867  0.68318874  0.59058019     0.33000
H1196       H  0.08417296  0.74505294  0.74327066     0.35700
C1197       C  0.35431463  0.77203462  0.69825245     0.21300
C1198       C  0.35409670  0.80066431  0.69573863    -0.38600
C1199       C  0.36684563  0.81771929  0.66735460     0.20300
C1200       C  0.37831699  0.80673612  0.64329153     0.22900
C1201       C  0.37890011  0.77842671  0.64597946    -0.39100
C1202       C  0.36662512  0.76166762  0.67442219     0.21700
N1203       N  0.34341364  0.75125795  0.72254545    -0.32300
C1204       C  0.34954433  0.72789076  0.71434025    -0.09900
C1205       C  0.36374241  0.73352201  0.68434299    -0.28700
N1206       N  0.38831788  0.82666264  0.61841572    -0.45300
C1207       C  0.38349878  0.85087406  0.62647698    -0.04600
C1208       C  0.37056935  0.84630337  0.65724562    -0.22000
H1209       H  0.34472418  0.80901002  0.71443446     0.19900
H1210       H  0.38819290  0.77003638  0.62724661     0.18700
H1211       H  0.37110979  0.71906451  0.67146005     0.14900
H1212       H  0.36493471  0.86180232  0.67069905     0.14800
H1213       H  0.33187588  0.75268284  0.74294679     0.33000
H1214       H  0.39748548  0.82359434  0.59700160     0.35700
C1215       C  0.34717238  0.75483883  0.82562047     0.21300
C1216       C  0.33724298  0.76683458  0.85088851    -0.38600
C1217       C  0.35735613  0.79880337  0.85849630     0.20300
C1218       C  0.38542570  0.81718369  0.84245648     0.22900
C1219       C  0.39526269  0.80524828  0.81713564    -0.39100
C1220       C  0.37497821  0.77345406  0.80927155     0.21700
N1221       N  0.33182371  0.72557446  0.81305355    -0.32300
C1222       C  0.34966624  0.72580880  0.78814985    -0.09900
C1223       C  0.37699922  0.75511779  0.78531150    -0.28700
N1224       N  0.40053570  0.84664358  0.85443495    -0.45300
C1225       C  0.38178610  0.84720662  0.87793317    -0.04600
C1226       C  0.35461760  0.81783630  0.88127724    -0.22000
H1227       H  0.31532276  0.75244658  0.86343932     0.19900
H1228       H  0.41696280  0.81975609  0.80427797     0.18700
H1229       H  0.39547906  0.76218957  0.76767257     0.14900
H1230       H  0.33576071  0.81126384  0.89835460     0.14800
H1231       H  0.31006453  0.70690121  0.82025570     0.33000
H1232       H  0.42224472  0.86531317  0.84708227     0.35700
C1233       C  0.44718408  0.63404237  0.83735928     0.21300
C1234       C  0.44304719  0.64352774  0.80697161    -0.38600
C1235       C  0.41580613  0.64569100  0.80307180     0.20300
C1236       C  0.39411067  0.63850655  0.82731366     0.22900
C1237       C  0.39851986  0.62956242  0.85790912    -0.39100
C1238       C  0.42599223  0.62779152  0.86196111     0.21700
N1239       N  0.47040268  0.62887053  0.84673750    -0.32300
C1240       C  0.46435286  0.61976597  0.87781834    -0.09900
C1241       C  0.43676640  0.61887140  0.88807433    -0.28700
N1242       N  0.36963581  0.64124792  0.81704663    -0.45300
C1243       C  0.37578069  0.65045259  0.78598126    -0.04600
C1244       C  0.40484091  0.65405047  0.77677663    -0.22000
H1245       H  0.45961616  0.64849362  0.78768026     0.19900
H1246       H  0.38163643  0.62400868  0.87700655     0.18700
H1247       H  0.42569558  0.61199830  0.91134265     0.14900
H1248       H  0.41706447  0.66234020  0.75426869     0.14800
H1249       H  0.48838697  0.63017443  0.83228389     0.33000
H1250       H  0.34980674  0.63661825  0.83042461     0.35700
C1251       C  0.40734023  0.65233500  0.67705417     0.21300
C1252       C  0.43149679  0.66338742  0.65420425    -0.38600
C1253       C  0.44129629  0.64194744  0.64518125     0.20300
C1254       C  0.42786585  0.61173269  0.65779436     0.22900
C1255       C  0.40381744  0.60072521  0.68076898    -0.39100
C1256       C  0.39415791  0.62223712  0.68994543     0.21700
N1257       N  0.39447420  0.66840761  0.69014667    -0.32300
C1258       C  0.37340345  0.64861549  0.71188943    -0.09900
C1259       C  0.37218223  0.61943450  0.71223367    -0.28700
N1260       N  0.44096042  0.59578812  0.64491525    -0.45300
C1261       C  0.46311549  0.61609346  0.62423297    -0.04600
C1262       C  0.46398086  0.64511390  0.62363319    -0.22000
H1263       H  0.44199639  0.68699366  0.64431597     0.19900
H1264       H  0.39351707  0.57721849  0.69087198     0.18700
H1265       H  0.35772114  0.59928297  0.72729376     0.14900
H1266       H  0.47884561  0.66550549  0.60903077     0.14800
H1267       H  0.40037683  0.69174036  0.68540211     0.33000
H1268       H  0.43520347  0.57251295  0.64982224     0.35700
C1269       C  0.18145526  0.55228968  0.83500228     0.21300
C1270       C  0.19502293  0.55604138  0.80455038    -0.38600
C1271       C  0.22490668  0.58282614  0.80072268     0.20300
C1272       C  0.23979311  0.60433852  0.82512248     0.22900
C1273       C  0.22640264  0.60043389  0.85557284    -0.39100
C1274       C  0.19679472  0.57353247  0.85953997     0.21700
N1275       N  0.15318813  0.52910331  0.84482455    -0.32300
C1276       C  0.15075696  0.53540726  0.87604483    -0.09900
C1277       C  0.17754594  0.56304605  0.88591131    -0.28700
N1278       N  0.26762936  0.62808700  0.81532183    -0.45300
C1279       C  0.27085304  0.62183804  0.78435250    -0.04600
C1280       C  0.24469342  0.59333532  0.77464757    -0.22000
H1281       H  0.18321717  0.53939825  0.78530640     0.19900
H1282       H  0.23816739  0.61715214  0.87476675     0.18700
H1283       H  0.18230113  0.57407003  0.90928064     0.14900
H1284       H  0.24061299  0.58117897  0.75202494     0.14800
H1285       H  0.13638916  0.51071095  0.83080465     0.33000
H1286       H  0.28316201  0.64756684  0.82901692     0.35700
C1287       C  0.19634651  0.55772722  0.64494104     0.21300
C1288       C  0.22753512  0.56628641  0.65219913    -0.38600
C1289       C  0.24250060  0.59050581  0.67493725     0.20300
C1290       C  0.22740914  0.60482302  0.68954425     0.22900
C1291       C  0.19635879  0.59641580  0.68214485    -0.39100
C1292       C  0.18155029  0.57249352  0.65919974     0.21700
N1293       N  0.17709064  0.53577731  0.62382010    -0.32300
C1294       C  0.15003289  0.53690848  0.62452062    -0.09900
C1295       C  0.15195273  0.55953423  0.64621052    -0.28700
N1296       N  0.24624551  0.62629970  0.71117156    -0.45300
C1297       C  0.27344975  0.62554634  0.71036542    -0.04600
C1298       C  0.27228250  0.60393109  0.68778585    -0.22000
H1299       H  0.23925758  0.55492742  0.64101476     0.19900
H1300       H  0.18458857  0.60767929  0.69342834     0.18700
H1301       H  0.13411669  0.56577364  0.65150763     0.14900
H1302       H  0.29037423  0.59806034  0.68243984     0.14800
H1303       H  0.18220437  0.52144241  0.60932700     0.33000
H1304       H  0.24079218  0.64014748  0.72603349     0.35700
C1305       C  0.83100282  0.16558083  0.28035581     0.46400
H1306       H  0.83082840  0.16533816  0.30682687    -0.02600
C1307       C  0.83258611  0.16758743  0.21826293     0.46500
H1308       H  0.83295898  0.16806132  0.19168576    -0.02600
C1309       C  0.79906968  0.14283895  0.26475013    -0.16300
C1310       C  0.84057602  0.19837794  0.26679663    -0.16000
C1311       C  0.85462060  0.15690271  0.26567925    -0.16400
C1312       C  0.80020416  0.14415026  0.23185978    -0.16400
C1313       C  0.84139210  0.19950500  0.23394165    -0.15900
C1314       C  0.85491215  0.15763767  0.23275475    -0.16300
O1315       O  0.59727719  0.06379873  0.02879167    -0.70800
O1316       O  0.56136720  0.09845336  0.46924664    -0.71000
O1317       O  0.56420706  0.09674778  0.03432075    -0.70900
O1318       O  0.59448334  0.06583645  0.46375822    -0.70900
O1319       O  0.55794006  0.02078936  0.47932271    -0.70800
O1320       O  0.51934219  0.05929688  0.01974328    -0.70900
O1321       O  0.52795393  0.04965113  0.45905974    -0.70800
O1322       O  0.54905553  0.03025214  0.03996039    -0.71000
V1323       V  0.57986423  0.08175851  0.49905836     1.35200
V1324       V  0.53893961  0.04035863  0.99950940     1.35200
C1325       C  0.57766556  0.03904677  0.04407896     0.78400
C1326       C  0.53672032  0.07836955  0.45426259     0.78500
C1327       C  0.53423759  0.08235385  0.03739557     0.78400
C1328       C  0.58037413  0.03567625  0.46112259     0.78300
O1329       O  0.93996843  0.46226039  0.01999971    -0.70800
O1330       O  0.97869475  0.03875358  0.47853573    -0.71000
O1331       O  0.97003954  0.02137123  0.03943193    -0.70900
O1332       O  0.94871579  0.47958410  0.45917812    -0.70900
O1333       O  0.90058640  0.46516399  0.47045830    -0.70800
O1334       O  0.93683561  0.03681444  0.02872199    -0.70900
O1335       O  0.93385243  0.03118687  0.46382269    -0.70800
O1336       O  0.90369921  0.47128333  0.03532387    -0.71000
V1337       V  0.95901122  0.00050936  0.99928278     1.35200
V1338       V  0.91819616  0.00111462  0.49951646     1.37300
C1339       C  0.91773970  0.45524540  0.03834180     0.78400
C1340       C  0.96383174  0.04674412  0.46074361     0.78500
C1341       C  0.96139802  0.04145559  0.04380966     0.78400
C1342       C  0.92006904  0.45963849  0.45545642     0.78300
O1343       O  0.53427093  0.43753501  0.47057120    -0.70800
O1344       O  0.96344294  0.40269709  0.02988377    -0.71000
O1345       O  0.96868636  0.40467518  0.46473116    -0.70900
O1346       O  0.52915106  0.43531422  0.03565605    -0.70900
O1347       O  0.53705414  0.48044645  0.02071140    -0.70800
O1348       O  0.96101887  0.44226234  0.47904671    -0.70900
O1349       O  0.97819163  0.45142476  0.04009398    -0.70800
O1350       O  0.51972776  0.47147922  0.45969129    -0.71000
V1351       V  0.99887397  0.41954812  0.00022948     1.35200
V1352       V  0.49900829  0.46100404  0.99990280     1.35200
C1353       C  0.53936125  0.46235777  0.45532093     0.78400
C1354       C  0.95840053  0.42270763  0.04473408     0.78500
C1355       C  0.95314280  0.41919488  0.46139858     0.78400
C1356       C  0.54492727  0.46546628  0.03854343     0.78300
C1357       C  0.51525239  0.12555859  0.10159466     0.03300
C1358       C  0.98203523  0.10727464  0.10363054     0.03200
C1359       C  0.96574863  0.08017262  0.08467607    -0.17300
C1360       C  0.98141891  0.07072385  0.06326305     0.03300
C1361       C  0.51539136  0.08989649  0.06041110     0.03200
C1362       C  0.53132813  0.11667405  0.07983472    -0.17300
H1363       H  0.55673008  0.13044250  0.07837666     0.05300
H1364       H  0.94032672  0.06631096  0.08642708     0.05300
C1365       C  0.87513856  0.39476311  0.10341679     0.03300
C1366       C  0.89222709  0.37834686  0.10499264     0.03200
C1367       C  0.91890612  0.38825862  0.08538051    -0.17300
C1368       C  0.92902564  0.41371413  0.06421153     0.03300
C1369       C  0.91062512  0.42952848  0.06194348     0.03200
C1370       C  0.88469971  0.42006893  0.08212002    -0.17300
H1371       H  0.87110062  0.43202483  0.08061918     0.05300
H1372       H  0.93268857  0.37654373  0.08715685     0.05300
C1373       C  0.98306828  0.10958570  0.39734080     0.03300
C1374       C  0.51615834  0.12369025  0.39445914     0.03200
C1375       C  0.53233663  0.11243035  0.41293125    -0.17300
C1376       C  0.51668868  0.08750631  0.43458285     0.03300
C1377       C  0.98274870  0.07302987  0.43769152     0.03200
C1378       C  0.96695231  0.08441988  0.41887749    -0.17300
H1379       H  0.94161976  0.07329098  0.42089806     0.05300
H1380       H  0.55769924  0.12363482  0.41075658     0.05300
C1381       C  0.89060524  0.37516069  0.39822270     0.03300
C1382       C  0.87348053  0.39146429  0.39837162     0.03200
C1383       C  0.88378183  0.41839364  0.41771398    -0.17300
C1384       C  0.91051004  0.42958549  0.43696218     0.03300
C1385       C  0.92672766  0.41147659  0.43847950     0.03200
C1386       C  0.91675587  0.38519730  0.41833176    -0.17300
H1387       H  0.92909468  0.37192179  0.41869238     0.05300
H1388       H  0.87138506  0.43160036  0.41698423     0.05300
C1389       C  0.62275283  0.01649266  0.39654855     0.03300
C1390       C  0.60478992  0.48311144  0.39488981     0.03200
C1391       C  0.57807583  0.46658710  0.41424964    -0.17300
C1392       C  0.56861386  0.48233227  0.43568150     0.03300
C1393       C  0.58756240  0.01659468  0.43805491     0.03200
C1394       C  0.61388488  0.03265609  0.41824093    -0.17300
H1395       H  0.62752829  0.05822850  0.41955182     0.05300
H1396       H  0.56451916  0.44099415  0.41270398     0.05300
C1397       C  0.62274640  0.01799163  0.10358684     0.03300
C1398       C  0.60702336  0.48449565  0.10253962     0.03200
C1399       C  0.58182940  0.46836740  0.08113028    -0.17300
C1400       C  0.57145670  0.48448908  0.06131516     0.03300
C1401       C  0.58697439  0.01881431  0.06336881     0.03200
C1402       C  0.61255252  0.03451108  0.08409844    -0.17300
H1403       H  0.62468593  0.06013876  0.08526296     0.05300
H1404       H  0.56960229  0.44276900  0.08027004     0.05300
C1405       C  0.66561295  0.33383006  0.21867427     0.46400
H1406       H  0.66552881  0.33416449  0.19215747    -0.02600
C1407       C  0.66716348  0.33406545  0.28077233     0.46500
H1408       H  0.66725834  0.33373866  0.30732455    -0.02600
C1409       C  0.64429352  0.30110448  0.23339683    -0.16300
C1410       C  0.69834318  0.34476282  0.23238768    -0.16000
C1411       C  0.65504522  0.35576131  0.23393786    -0.16400
C1412       C  0.64522645  0.30131590  0.26629042    -0.16400
C1413       C  0.69947670  0.34500994  0.26525050    -0.15900
C1414       C  0.65574818  0.35561375  0.26681862    -0.16300
C1415       C  0.62061925  0.42640614  0.14069834     0.21300
C1416       C  0.62100890  0.39792464  0.14321808    -0.38600
C1417       C  0.63092190  0.39247710  0.17276255     0.20300
C1418       C  0.64016274  0.41393438  0.19769531     0.22900
C1419       C  0.63930521  0.44221362  0.19535045    -0.39100
C1420       C  0.62901786  0.44748510  0.16589906     0.21700
N1421       N  0.61239937  0.43717836  0.11507020    -0.32300
C1422       C  0.61536446  0.46535028  0.12388037    -0.09900
C1423       C  0.62534748  0.47230417  0.15571306    -0.28700
N1424       N  0.64998405  0.40388424  0.22269122    -0.45300
C1425       C  0.64618740  0.37533331  0.21397328    -0.04600
C1426       C  0.63448739  0.36760440  0.18284885    -0.22000
H1427       H  0.61428045  0.38132846  0.12355576     0.19900
H1428       H  0.64630612  0.45894106  0.21492181     0.18700
H1429       H  0.62885811  0.49237806  0.16989374     0.14900
H1430       H  0.62939352  0.34668261  0.16924707     0.14800
H1431       H  0.60540200  0.42601528  0.09283561     0.33000
H1432       H  0.65988929  0.41656680  0.24368156     0.35700
C1433       C  0.64935117  0.40713140  0.32314965     0.21300
C1434       C  0.65999958  0.43091441  0.34653734    -0.38600
C1435       C  0.63922973  0.44181018  0.35431941     0.20300
C1436       C  0.60999005  0.42971386  0.34006850     0.22900
C1437       C  0.59946137  0.40614454  0.31646922    -0.39100
C1438       C  0.62030713  0.39538630  0.30855204     0.21700
N1439       N  0.66504111  0.39352739  0.31090199    -0.32300
C1440       C  0.64614788  0.37352909  0.28792050    -0.09900
C1441       C  0.61780971  0.37360436  0.28602871    -0.28700
N1442       N  0.59429000  0.44329262  0.35233863    -0.45300
C1443       C  0.61379369  0.46438282  0.37428416    -0.04600
C1444       C  0.64209071  0.46424310  0.37621111    -0.22000
H1445       H  0.68280224  0.44030051  0.35776212     0.19900
H1446       H  0.57676026  0.39693203  0.30506460     0.18700
H1447       H  0.59853805  0.36031927  0.26966443     0.14900
H1448       H  0.66167098  0.47808623  0.39205918     0.14800
H1449       H  0.68771750  0.39846400  0.31684094     0.33000
H1450       H  0.57162877  0.43840645  0.34638034     0.35700
C1451       C  0.75878056  0.36705026  0.32571487     0.21300
C1452       C  0.77176497  0.37580604  0.35642530    -0.38600
C1453       C  0.80050376  0.37670125  0.36096313     0.20300
C1454       C  0.81540493  0.36981020  0.33672919     0.22900
C1455       C  0.80240319  0.36107121  0.30599292    -0.39100
C1456       C  0.77343083  0.35977784  0.30157815     0.21700
N1457       N  0.73120744  0.36342086  0.31560950    -0.32300
C1458       C  0.72800121  0.35355356  0.28476699    -0.09900
C1459       C  0.75396847  0.35085538  0.27533343    -0.28700
N1460       N  0.84284641  0.37313071  0.34700859    -0.45300
C1461       C  0.84534928  0.38203637  0.37813418    -0.04600
C1462       C  0.81930032  0.38445705  0.38759840    -0.22000
H1463       H  0.76022988  0.38127906  0.37544706     0.19900
H1464       H  0.81384724  0.35543343  0.28701074     0.18700
H1465       H  0.75780801  0.34219603  0.25294710     0.14900
H1466       H  0.81501142  0.39158459  0.41074123     0.14800
H1467       H  0.71551760  0.36727741  0.32913069     0.33000
H1468       H  0.85932381  0.37075463  0.33322889     0.35700
C1469       C  0.59252575  0.24340259  0.32163355     0.21300
C1470       C  0.56876803  0.23072545  0.34491470    -0.38600
C1471       C  0.55783888  0.19907335  0.35310404     0.20300
C1472       C  0.56979695  0.18144553  0.33926226     0.22900
C1473       C  0.59332958  0.19401255  0.31568803    -0.39100
C1474       C  0.60419248  0.22567279  0.30740748     0.21700
N1475       N  0.60648931  0.27276886  0.30948792    -0.32300
C1476       C  0.62675725  0.27360750  0.28698027    -0.09900
C1477       C  0.62630750  0.24480160  0.28515285    -0.28700
N1478       N  0.55614345  0.15227116  0.35190334    -0.45300
C1479       C  0.53511785  0.15123015  0.37365935    -0.04600
C1480       C  0.53549479  0.17998290  0.37513143    -0.22000
H1481       H  0.55951487  0.24452335  0.35588599     0.19900
H1482       H  0.60253154  0.18018956  0.30466858     0.18700
H1483       H  0.63971621  0.23854414  0.26914100     0.14900
H1484       H  0.52178089  0.18621893  0.39072253     0.14800
H1485       H  0.60182633  0.29086854  0.31535065     0.33000
H1486       H  0.56090127  0.13419455  0.34625329     0.35700
C1487       C  0.81450142  0.39137508  0.15378408     0.21300
C1488       C  0.80055111  0.40304868  0.17509209    -0.38600
C1489       C  0.77068830  0.38078355  0.18644432     0.20300
C1490       C  0.75576796  0.34937884  0.17697013     0.22900
C1491       C  0.76974810  0.33771701  0.15570389    -0.39100
C1492       C  0.79971208  0.35993131  0.14454886     0.21700
N1493       N  0.84305463  0.40754672  0.14028499    -0.32300
C1494       C  0.84671639  0.38620379  0.12271202    -0.09900
C1495       C  0.81995663  0.35629436  0.12437016    -0.28700
N1496       N  0.72784624  0.33285499  0.19164296    -0.45300
C1497       C  0.72526653  0.35376161  0.21093604    -0.04600
C1498       C  0.75133539  0.38396705  0.20826705    -0.22000
H1499       H  0.81229360  0.42753889  0.18265236     0.19900
H1500       H  0.75831432  0.31307688  0.14871077     0.18700
H1501       H  0.81602563  0.33482192  0.11263521     0.14900
H1502       H  0.75570560  0.40511465  0.22101311     0.14800
H1503       H  0.85931121  0.43156229  0.14319274     0.33000
H1504       H  0.71189028  0.30867979  0.18943993     0.35700
C1505       C  0.57258904  0.19769982  0.13887170     0.21300
C1506       C  0.60063178  0.22674845  0.14113667    -0.38600
C1507       C  0.60657159  0.24169092  0.17103085     0.20300
C1508       C  0.58593892  0.22894691  0.19645214     0.22900
C1509       C  0.55815093  0.19967730  0.19432319    -0.39100
C1510       C  0.55243668  0.18451650  0.16459174     0.21700
N1511       N  0.56154317  0.17881656  0.11316083    -0.32300
C1512       C  0.53420544  0.15324180  0.12254110    -0.09900
C1513       C  0.52802257  0.15586423  0.15470087    -0.28700
N1514       N  0.59635030  0.24831993  0.22185483    -0.45300
C1515       C  0.62439405  0.27324592  0.21294237    -0.04600
C1516       C  0.63135261  0.26996794  0.18123517    -0.22000
H1517       H  0.61659596  0.23696056  0.12112216     0.19900
H1518       H  0.54216718  0.18948840  0.21432568     0.18700
H1519       H  0.50870545  0.13888588  0.16922203     0.14900
H1520       H  0.65177607  0.28604142  0.16738524     0.14800
H1521       H  0.57203872  0.18318802  0.09058074     0.33000
H1522       H  0.58417241  0.24505324  0.24327052     0.35700
C1523       C  0.85431477  0.27203496  0.19825280     0.21300
C1524       C  0.85409684  0.30066466  0.19573895    -0.38600
C1525       C  0.86684567  0.31771956  0.16735485     0.20300
C1526       C  0.87831690  0.30673628  0.14329175     0.22900
C1527       C  0.87890001  0.27842688  0.14597971    -0.39100
C1528       C  0.86662516  0.26166789  0.17442250     0.21700
N1529       N  0.84341388  0.25125834  0.22254585    -0.32300
C1530       C  0.84954451  0.22789112  0.21434059    -0.09900
C1531       C  0.86374249  0.23352232  0.18434331    -0.28700
N1532       N  0.88831775  0.32666272  0.11841588    -0.45300
C1533       C  0.88349879  0.35087422  0.12647714    -0.04600
C1534       C  0.87056946  0.34630365  0.15724583    -0.22000
H1535       H  0.84472442  0.30901043  0.21443481     0.19900
H1536       H  0.88819271  0.27003648  0.12724684     0.18700
H1537       H  0.87110986  0.21906480  0.17146036     0.14900
H1538       H  0.86493494  0.36180269  0.17069926     0.14800
H1539       H  0.83187619  0.25268327  0.24294722     0.33000
H1540       H  0.89748526  0.32359433  0.09700174     0.35700
C1541       C  0.84717185  0.25483903  0.32562031     0.21300
C1542       C  0.83724216  0.26683491  0.35088798    -0.38600
C1543       C  0.85735563  0.29880352  0.35849617     0.20300
C1544       C  0.88542570  0.31718353  0.34245706     0.22900
C1545       C  0.89526295  0.30524802  0.31713658    -0.39100
C1546       C  0.87497819  0.27345399  0.30927209     0.21700
N1547       N  0.83182313  0.22557479  0.31305318    -0.32300
C1548       C  0.84966615  0.22580894  0.28815007    -0.09900
C1549       C  0.87699945  0.25511770  0.28531226    -0.28700
N1550       N  0.90053589  0.34664325  0.35443582    -0.45300
C1551       C  0.88178598  0.34720657  0.37793348    -0.04600
C1552       C  0.85461701  0.31783655  0.38127694    -0.22000
H1553       H  0.81532155  0.25244713  0.36343824     0.19900
H1554       H  0.91696349  0.31975562  0.30427947     0.18700
H1555       H  0.89547969  0.26218929  0.26767383     0.14900
H1556       H  0.83575976  0.31126432  0.39835377     0.14800
H1557       H  0.81006361  0.20690172  0.32025481     0.33000
H1558       H  0.92224527  0.36531261  0.34708365     0.35700
C1559       C  0.94718387  0.13404204  0.33735923     0.21300
C1560       C  0.94304694  0.14352734  0.30697156    -0.38600
C1561       C  0.91580583  0.14569053  0.30307176     0.20300
C1562       C  0.89411034  0.13850603  0.32731362     0.22900
C1563       C  0.89851957  0.12956190  0.35790907    -0.39100
C1564       C  0.92599201  0.12779112  0.36196106     0.21700
N1565       N  0.97040260  0.12887045  0.34673748    -0.32300
C1566       C  0.96435292  0.11976601  0.37781835    -0.09900
C1567       C  0.93676635  0.11887123  0.38807432    -0.28700
N1568       N  0.86963550  0.14124757  0.31704670    -0.45300
C1569       C  0.87578055  0.15045243  0.28598133    -0.04600
C1570       C  0.90484072  0.15405016  0.27677664    -0.22000
H1571       H  0.95961595  0.14849335  0.28768024     0.19900
H1572       H  0.88163618  0.12400817  0.37700651     0.18700
H1573       H  0.92569559  0.11199817  0.41134267     0.14900
H1574       H  0.91706436  0.16233999  0.25426875     0.14800
H1575       H  0.98838692  0.13017445  0.33228386     0.33000
H1576       H  0.84980647  0.13661800  0.33042469     0.35700
C1577       C  0.90734104  0.15233584  0.17705481     0.21300
C1578       C  0.93149808  0.16338841  0.15420541    -0.38600
C1579       C  0.94129692  0.14194807  0.14518173     0.20300
C1580       C  0.92786545  0.11173287  0.15779377     0.22900
C1581       C  0.90381659  0.10072516  0.18076790    -0.39100
C1582       C  0.89415769  0.12223741  0.18994500     0.21700
N1583       N  0.89447534  0.16840873  0.19014762    -0.32300
C1584       C  0.87340371  0.14861600  0.21188953    -0.09900
C1585       C  0.87218170  0.11943460  0.21223293    -0.28700
N1586       N  0.94095961  0.09578815  0.14491422    -0.45300
C1587       C  0.96311541  0.11609369  0.12423272    -0.04600
C1588       C  0.96398166  0.14511456  0.12363385    -0.22000
H1589       H  0.94199847  0.18699502  0.14431795     0.19900
H1590       H  0.89351539  0.07721803  0.19087003     0.18700
H1591       H  0.85771982  0.09928264  0.22729223     0.14900
H1592       H  0.97884714  0.16550649  0.10903219     0.14800
H1593       H  0.90037861  0.19174178  0.18540380     0.33000
H1594       H  0.93520191  0.07251262  0.14982049     0.35700
C1595       C  0.68145569  0.05229029  0.33500288     0.21300
C1596       C  0.69502337  0.05604186  0.30455102    -0.38600
C1597       C  0.72490687  0.08282688  0.30072309     0.20300
C1598       C  0.73979306  0.10433964  0.32512264     0.22900
C1599       C  0.72640256  0.10043521  0.35557297    -0.39100
C1600       C  0.69679489  0.07353348  0.35954034     0.21700
N1601       N  0.65318882  0.02910364  0.34482536    -0.32300
C1602       C  0.65075752  0.03540772  0.37604554    -0.09900
C1603       C  0.67754619  0.06304696  0.38591175    -0.28700
N1604       N  0.76762921  0.12808808  0.31532180    -0.45300
C1605       C  0.77085310  0.12183873  0.28435271    -0.04600
C1606       C  0.74469368  0.09333581  0.27464803    -0.22000
H1607       H  0.68321783  0.03939838  0.28530724     0.19900
H1608       H  0.73816716  0.11715375  0.37476672     0.18700
H1609       H  0.68230125  0.07407119  0.40928094     0.14900
H1610       H  0.74061349  0.08117916  0.25202561     0.14800
H1611       H  0.63639006  0.01071100  0.33080558     0.33000
H1612       H  0.78316180  0.14756814  0.32901669     0.35700
C1613       C  0.69634695  0.05772758  0.14494087     0.21300
C1614       C  0.72753558  0.06628688  0.15219902    -0.38600
C1615       C  0.74250088  0.09050615  0.17493732     0.20300
C1616       C  0.72740924  0.10482308  0.18954447     0.22900
C1617       C  0.69635886  0.09641575  0.18214501    -0.39100
C1618       C  0.68155055  0.07249364  0.15919968     0.21700
N1619       N  0.67709123  0.03577779  0.12381973    -0.32300
C1620       C  0.65003341  0.03690884  0.12452020    -0.09900
C1621       C  0.65195305  0.05953435  0.14621030    -0.28700
N1622       N  0.74624549  0.12629971  0.21117187    -0.45300
C1623       C  0.77344987  0.12554660  0.21036564    -0.04600
C1624       C  0.77228280  0.10393155  0.18778592    -0.22000
H1625       H  0.73925820  0.05492811  0.14101453     0.19900
H1626       H  0.68458850  0.10767906  0.19342857     0.18700
H1627       H  0.63411691  0.06577361  0.15150746     0.14900
H1628       H  0.79037466  0.09806105  0.18243979     0.14800
H1629       H  0.68220510  0.02144305  0.10932654     0.33000
H1630       H  0.74079204  0.14014734  0.22603388     0.35700
C1631       C  0.83100297  0.16558067  0.78035557     0.46400
H1632       H  0.83082867  0.16533804  0.80682661    -0.02600
C1633       C  0.83258603  0.16758725  0.71826269     0.46500
H1634       H  0.83295882  0.16806116  0.69168552    -0.02600
C1635       C  0.79906982  0.14283857  0.76474999    -0.16300
C1636       C  0.84057601  0.19837776  0.76679644    -0.16000
C1637       C  0.85462085  0.15690276  0.76567893    -0.16400
C1638       C  0.80020414  0.14414996  0.73185964    -0.16400
C1639       C  0.84139198  0.19950481  0.73394144    -0.15900
C1640       C  0.85491224  0.15763764  0.73275442    -0.16300
O1641       O  0.59727679  0.06379853  0.52879230    -0.70800
O1642       O  0.56136723  0.09845322  0.96924609    -0.71000
O1643       O  0.56420688  0.09674781  0.53432127    -0.70900
O1644       O  0.59448346  0.06583643  0.96375764    -0.70900
O1645       O  0.55794038  0.02078936  0.97932243    -0.70800
O1646       O  0.51934203  0.05929702  0.51974366    -0.70900
O1647       O  0.52795398  0.04965092  0.95905936    -0.70800
O1648       O  0.54905504  0.03025191  0.53996073    -0.71000
V1649       V  0.57986441  0.08175853  0.99905780     1.35200
V1650       V  0.53893936  0.04035867  0.49950977     1.35200
C1651       C  0.57766506  0.03904654  0.54407949     0.78400
C1652       C  0.53672036  0.07836935  0.95426208     0.78500
C1653       C  0.53423741  0.08235398  0.53739596     0.78400
C1654       C  0.58037434  0.03567621  0.96112218     0.78300
O1655       O  0.93996869  0.46226059  0.51999974    -0.70800
O1656       O  0.97869439  0.03875336  0.97853574    -0.71000
O1657       O  0.97004005  0.02137142  0.53943191    -0.70900
O1658       O  0.94871538  0.47958384  0.95917808    -0.70900
O1659       O  0.90058602  0.46516376  0.97045838    -0.70800
O1660       O  0.93683608  0.03681468  0.52872231    -0.70900
O1661       O  0.93385204  0.03118634  0.96382236    -0.70800
O1662       O  0.90369943  0.47128351  0.53532382    -0.71000
V1663       V  0.95901147  0.00050956  0.49928274     1.35200
V1664       V  0.91819583  0.00111425  0.99951625     1.37300
C1665       C  0.91773994  0.45524559  0.53834181     0.78400
C1666       C  0.96383135  0.04674367  0.96074338     0.78500
C1667       C  0.96139852  0.04145575  0.54380986     0.78400
C1668       C  0.92006862  0.45963822  0.95545648     0.78300
O1669       O  0.53427089  0.43753468  0.97057112    -0.70800
O1670       O  0.96344314  0.40269731  0.52988368    -0.71000
O1671       O  0.96868597  0.40467491  0.96473124    -0.70900
O1672       O  0.52915098  0.43531454  0.53565613    -0.70900
O1673       O  0.53705406  0.48044676  0.52071142    -0.70800
O1674       O  0.96101850  0.44226209  0.97904676    -0.70900
O1675       O  0.97819195  0.45142502  0.54009394    -0.70800
O1676       O  0.51972780  0.47147896  0.95969125    -0.71000
V1677       V  0.99887424  0.41954830  0.50022949     1.35200
V1678       V  0.49900822  0.46100426  0.49990284     1.35200
C1679       C  0.53936127  0.46235749  0.95532090     0.78400
C1680       C  0.95840082  0.42270790  0.54473404     0.78500
C1681       C  0.95314241  0.41919461  0.96139865     0.78400
C1682       C  0.54492714  0.46546659  0.53854351     0.78300
C1683       C  0.51525188  0.12555941  0.60159405     0.03300
C1684       C  0.98203554  0.10727471  0.60363071     0.03200
C1685       C  0.96574903  0.08017256  0.58467643    -0.17300
C1686       C  0.98141938  0.07072394  0.56326334     0.03300
C1687       C  0.51539114  0.08989675  0.56041127     0.03200
C1688       C  0.53132775  0.11667476  0.57983437    -0.17300
H1689       H  0.55672967  0.13044345  0.57837615     0.05300
H1690       H  0.94032714  0.06631075  0.58642757     0.05300
C1691       C  0.87513920  0.39476351  0.60341720     0.03300
C1692       C  0.89222780  0.37834732  0.60499302     0.03200
C1693       C  0.91890675  0.38825910  0.58538076    -0.17300
C1694       C  0.92902604  0.41371445  0.56421162     0.03300
C1695       C  0.91062545  0.42952873  0.56194358     0.03200
C1696       C  0.88470016  0.42006922  0.58212030    -0.17300
H1697       H  0.87110101  0.43202508  0.58061951     0.05300
H1698       H  0.93268931  0.37654433  0.58715709     0.05300
C1699       C  0.98306806  0.10958514  0.89734043     0.03300
C1700       C  0.51615854  0.12369018  0.89445856     0.03200
C1701       C  0.53233676  0.11243015  0.91293063    -0.17300
C1702       C  0.51668877  0.08750610  0.93458222     0.03300
C1703       C  0.98274830  0.07302927  0.93769119     0.03200
C1704       C  0.96695197  0.08441928  0.91887706    -0.17300
H1705       H  0.94161942  0.07329046  0.92089757     0.05300
H1706       H  0.55769938  0.12363461  0.91075603     0.05300
C1707       C  0.89060488  0.37516041  0.89822273     0.03300
C1708       C  0.87348002  0.39146388  0.89837181     0.03200
C1709       C  0.88378132  0.41839323  0.91771419    -0.17300
C1710       C  0.91050958  0.42958516  0.93696231     0.03300
C1711       C  0.92672726  0.41147631  0.93847957     0.03200
C1712       C  0.91675553  0.38519708  0.91833177    -0.17300
H1713       H  0.92909443  0.37192165  0.91869230     0.05300
H1714       H  0.87138454  0.43159994  0.91698450     0.05300
C1715       C  0.62275290  0.01649238  0.89654830     0.03300
C1716       C  0.60479010  0.48311127  0.89488999     0.03200
C1717       C  0.57807602  0.46658688  0.91424981    -0.17300
C1718       C  0.56861392  0.48233202  0.93568155     0.03300
C1719       C  0.58756256  0.01659457  0.93805460     0.03200
C1720       C  0.61388504  0.03265591  0.91824060    -0.17300
H1721       H  0.62752853  0.05822832  0.91955142     0.05300
H1722       H  0.56451942  0.44099392  0.91270420     0.05300
C1723       C  0.62274543  0.01799121  0.60358782     0.03300
C1724       C  0.60702287  0.48449574  0.60253987     0.03200
C1725       C  0.58182898  0.46836757  0.58113049    -0.17300
C1726       C  0.57145640  0.48448934  0.56131534     0.03300
C1727       C  0.58697376  0.01881404  0.56336946     0.03200
C1728       C  0.61255157  0.03451072  0.58409947    -0.17300
H1729       H  0.62468485  0.06013839  0.58526421     0.05300
H1730       H  0.56960184  0.44276918  0.58027016     0.05300
C1731       C  0.66561295  0.33383001  0.71867402     0.46400
H1732       H  0.66552863  0.33416422  0.69215723    -0.02600
C1733       C  0.66716385  0.33406607  0.78077210     0.46500
H1734       H  0.66725891  0.33373960  0.80732432    -0.02600
C1735       C  0.64429405  0.30110444  0.73339695    -0.16300
C1736       C  0.69834337  0.34476343  0.73238732    -0.16000
C1737       C  0.65504485  0.35576105  0.73393745    -0.16400
C1738       C  0.64522708  0.30131628  0.76629055    -0.16400
C1739       C  0.69947703  0.34501088  0.76525013    -0.15900
C1740       C  0.65574810  0.35561387  0.76681818    -0.16300
C1741       C  0.62061860  0.42640593  0.64069825     0.21300
C1742       C  0.62100803  0.39792430  0.64321792    -0.38600
C1743       C  0.63092116  0.39247672  0.67276231     0.20300
C1744       C  0.64016227  0.41393407  0.69769503     0.22900
C1745       C  0.63930498  0.44221343  0.69535022    -0.39100
C1746       C  0.62901753  0.44748496  0.66589894     0.21700
N1747       N  0.61239864  0.43717822  0.61507020    -0.32300
C1748       C  0.61536400  0.46535026  0.62388046    -0.09900
C1749       C  0.62534729  0.47230414  0.65571307    -0.28700
N1750       N  0.64998367  0.40388393  0.72269088    -0.45300
C1751       C  0.64618686  0.37533294  0.71397290    -0.04600
C1752       C  0.63448663  0.36760395  0.68284854    -0.22000
H1753       H  0.61427933  0.38132809  0.62355562     0.19900
H1754       H  0.64630615  0.45894092  0.71492154     0.18700
H1755       H  0.62885813  0.49237808  0.66989382     0.14900
H1756       H  0.62939266  0.34668212  0.66924678     0.14800
H1757       H  0.60540105  0.42601511  0.59283566     0.33000
H1758       H  0.65988908  0.41656658  0.74368113     0.35700
C1759       C  0.64935233  0.40713315  0.82314790     0.21300
C1760       C  0.66000123  0.43091697  0.84653474    -0.38600
C1761       C  0.63923069  0.44181155  0.85431797     0.20300
C1762       C  0.60999001  0.42971346  0.84006886     0.22900
C1763       C  0.59946090  0.40614342  0.81647034    -0.39100
C1764       C  0.62030730  0.39538630  0.80855204     0.21700
N1765       N  0.66504240  0.39352950  0.81089979    -0.32300
C1766       C  0.64614823  0.37352963  0.78791985    -0.09900
C1767       C  0.61780943  0.37360370  0.78602931    -0.28700
N1768       N  0.59428953  0.44329134  0.85233991    -0.45300
C1769       C  0.61379386  0.46438275  0.87428420    -0.04600
C1770       C  0.64209178  0.46424466  0.87620945    -0.22000
H1771       H  0.68280464  0.44030438  0.85775818     0.19900
H1772       H  0.57675892  0.39692944  0.80506720     0.18700
H1773       H  0.59853693  0.36031719  0.76966638     0.14900
H1774       H  0.66167280  0.47808904  0.89205626     0.14800
H1775       H  0.68771938  0.39846717  0.81683756     0.33000
H1776       H  0.57162761  0.43840389  0.84638293     0.35700
C1777       C  0.75878099  0.36705175  0.82571442     0.21300
C1778       C  0.77176534  0.37580759  0.85642487    -0.38600
C1779       C  0.80050364  0.37670184  0.86096303     0.20300
C1780       C  0.81540440  0.36980992  0.83672938     0.22900
C1781       C  0.80240269  0.36107087  0.80599312    -0.39100
C1782       C  0.77343082  0.35977841  0.80157803     0.21700
N1783       N  0.73120820  0.36342282  0.81560874    -0.32300
C1784       C  0.72800164  0.35355488  0.78476652    -0.09900
C1785       C  0.75396846  0.35085589  0.77533331    -0.28700
N1786       N  0.84284554  0.37312981  0.84700902    -0.45300
C1787       C  0.84534869  0.38203595  0.87813444    -0.04600
C1788       C  0.81930013  0.38445750  0.88759834    -0.22000
H1789       H  0.76023055  0.38128129  0.87544641     0.19900
H1790       H  0.81384641  0.35543234  0.78701119     0.18700
H1791       H  0.75780758  0.34219577  0.75294727     0.14900
H1792       H  0.81501150  0.39158564  0.91074096     0.14800
H1793       H  0.71551855  0.36727990  0.82912968     0.33000
H1794       H  0.85932268  0.37075319  0.83322943     0.35700
C1795       C  0.59252644  0.24340304  0.82163382     0.21300
C1796       C  0.56876820  0.23072562  0.84491443    -0.38600
C1797       C  0.55783921  0.19907355  0.85310385     0.20300
C1798       C  0.56979797  0.18144606  0.83926266     0.22900
C1799       C  0.59333116  0.19401342  0.81568902    -0.39100
C1800       C  0.60419384  0.22567358  0.80740837     0.21700
N1801       N  0.60648978  0.27276918  0.80948793    -0.32300
C1802       C  0.62675819  0.27360808  0.78698074    -0.09900
C1803       C  0.62630904  0.24480248  0.78515392    -0.28700
N1804       N  0.55614446  0.15227159  0.85190357    -0.45300
C1805       C  0.53511815  0.15123022  0.87365893    -0.04600
C1806       C  0.53549467  0.17998280  0.87513073    -0.22000
H1807       H  0.55951445  0.24452325  0.85588519     0.19900
H1808       H  0.60253360  0.18019068  0.80467000     0.18700
H1809       H  0.63971814  0.23854520  0.76914244     0.14900
H1810       H  0.52178021  0.18621854  0.89072136     0.14800
H1811       H  0.60182624  0.29086860  0.81535011     0.33000
H1812       H  0.56090273  0.13419522  0.84625387     0.35700
C1813       C  0.81450238  0.39137558  0.65378488     0.21300
C1814       C  0.80055216  0.40304910  0.67509311    -0.38600
C1815       C  0.77068899  0.38078417  0.68644468     0.20300
C1816       C  0.75576823  0.34937971  0.67696968     0.22900
C1817       C  0.76974823  0.33771788  0.65570327    -0.39100
C1818       C  0.79971259  0.35993198  0.64454891     0.21700
N1819       N  0.84305584  0.40754721  0.64028614    -0.32300
C1820       C  0.84671716  0.38620426  0.62271260    -0.09900
C1821       C  0.81995705  0.35629500  0.62437012    -0.28700
N1822       N  0.72784628  0.33285605  0.69164202    -0.45300
C1823       C  0.72526677  0.35376238  0.71093565    -0.04600
C1824       C  0.75133607  0.38396761  0.70826746    -0.22000
H1825       H  0.81229496  0.42753912  0.68265400     0.19900
H1826       H  0.75831408  0.31307790  0.64870952     0.18700
H1827       H  0.81602573  0.33482269  0.61263459     0.14900
H1828       H  0.75570659  0.40511500  0.72101415     0.14800
H1829       H  0.85931269  0.43156264  0.64319433     0.33000
H1830       H  0.71189002  0.30868098  0.68943843     0.35700
C1831       C  0.57258880  0.19770048  0.63887126     0.21300
C1832       C  0.60063193  0.22674874  0.64113651    -0.38600
C1833       C  0.60657223  0.24169070  0.67103101     0.20300
C1834       C  0.58593974  0.22894652  0.69645239     0.22900
C1835       C  0.55815134  0.19967728  0.69432316    -0.39100
C1836       C  0.55243653  0.18451704  0.66459134     0.21700
N1837       N  0.56154256  0.17881756  0.61316016    -0.32300
C1838       C  0.53420474  0.15324286  0.62254033    -0.09900
C1839       C  0.52802204  0.15586511  0.65470020    -0.28700
N1840       N  0.59635139  0.24831934  0.72185520    -0.45300
C1841       C  0.62439497  0.27324549  0.71294274    -0.04600
C1842       C  0.63135335  0.26996763  0.68123544    -0.22000
H1843       H  0.61659599  0.23696101  0.62112193     0.19900
H1844       H  0.54216766  0.18948828  0.71432570     0.18700
H1845       H  0.50870501  0.13888666  0.66922137     0.14900
H1846       H  0.65177655  0.28604134  0.66738535     0.14800
H1847       H  0.57203812  0.18318903  0.59058008     0.33000
H1848       H  0.58417352  0.24505261  0.74327091     0.35700
C1849       C  0.85431503  0.27203497  0.69825277     0.21300
C1850       C  0.85409704  0.30066463  0.69573895    -0.38600
C1851       C  0.86684625  0.31771978  0.66735507     0.20300
C1852       C  0.87831796  0.30673681  0.64329216     0.22900
C1853       C  0.87890115  0.27842744  0.64598010    -0.39100
C1854       C  0.86662584  0.26166816  0.67442266     0.21700
N1855       N  0.84341375  0.25125811  0.72254558    -0.32300
C1856       C  0.84954451  0.22789098  0.71434042    -0.09900
C1857       C  0.86374298  0.23352246  0.68434337    -0.28700
N1858       N  0.88831897  0.32666341  0.61841644    -0.45300
C1859       C  0.88349961  0.35087468  0.62647754    -0.04600
C1860       C  0.87056987  0.34630381  0.65724605    -0.22000
H1861       H  0.84472421  0.30901016  0.71443465     0.19900
H1862       H  0.88819418  0.27003724  0.62724735     0.18700
H1863       H  0.87111052  0.21906506  0.67146050     0.14900
H1864       H  0.86493495  0.36180259  0.67069938     0.14800
H1865       H  0.83187576  0.25268283  0.74294681     0.33000
H1866       H  0.89748675  0.32359518  0.59700240     0.35700
C1867       C  0.84717260  0.25483859  0.82562092     0.21300
C1868       C  0.83724319  0.26683418  0.85088909    -0.38600
C1869       C  0.85735615  0.29880302  0.85849679     0.20300
C1870       C  0.88542556  0.31718352  0.84245679     0.22900
C1871       C  0.89526259  0.30524825  0.81713586    -0.39100
C1872       C  0.87497827  0.27345399  0.80927183     0.21700
N1873       N  0.83182403  0.22557429  0.81305391    -0.32300
C1874       C  0.84966639  0.22580879  0.78814999    -0.09900
C1875       C  0.87699924  0.25511786  0.78531161    -0.28700
N1876       N  0.90053532  0.34664342  0.85443516    -0.45300
C1877       C  0.88178576  0.34720634  0.87793346    -0.04600
C1878       C  0.85461750  0.31783588  0.88127773    -0.22000
H1879       H  0.81532307  0.25244604  0.86344001     0.19900
H1880       H  0.91696256  0.31975623  0.80427802     0.18700
H1881       H  0.89547896  0.26218980  0.76767251     0.14900
H1882       H  0.83576070  0.31126327  0.89835521     0.14800
H1883       H  0.81006493  0.20690094  0.82025614     0.33000
H1884       H  0.92224419  0.36531315  0.84708234     0.35700
C1885       C  0.94718423  0.13404216  0.83735889     0.21300
C1886       C  0.94304736  0.14352758  0.80697123    -0.38600
C1887       C  0.91580642  0.14569107  0.80307147     0.20300
C1888       C  0.89411104  0.13850677  0.82731338     0.22900
C1889       C  0.89852019  0.12956261  0.85790883    -0.39100
C1890       C  0.92599244  0.12779148  0.86196077     0.21700
N1891       N  0.97040278  0.12887014  0.84673701    -0.32300
C1892       C  0.96435291  0.11976567  0.87781793    -0.09900
C1893       C  0.93676654  0.11887129  0.88807398    -0.28700
N1894       N  0.86963622  0.14124824  0.81704641    -0.45300
C1895       C  0.87578106  0.15045284  0.78598100    -0.04600
C1896       C  0.90484121  0.15405057  0.77677629    -0.22000
H1897       H  0.95961625  0.14849332  0.78767985     0.19900
H1898       H  0.88163683  0.12400900  0.87700628     0.18700
H1899       H  0.92569576  0.11199832  0.91134234     0.14900
H1900       H  0.91706470  0.16234018  0.75426831     0.14800
H1901       H  0.98838702  0.13017394  0.83228340     0.33000
H1902       H  0.84980721  0.13661864  0.83042445     0.35700
C1903       C  0.90734057  0.15233548  0.67705401     0.21300
C1904       C  0.93149722  0.16338788  0.65420418    -0.38600
C1905       C  0.94129663  0.14194783  0.64518112     0.20300
C1906       C  0.92786604  0.11173303  0.65779413     0.22900
C1907       C  0.90381757  0.10072555  0.68076867    -0.39100
C1908       C  0.89415810  0.12223750  0.68994514     0.21700
N1909       N  0.89447460  0.16840820  0.69014652    -0.32300
C1910       C  0.87340368  0.14861589  0.71188915    -0.09900
C1911       C  0.87218235  0.11943482  0.71223329    -0.28700
N1912       N  0.94096052  0.09578837  0.64491502    -0.45300
C1913       C  0.96311568  0.11609372  0.62423281    -0.04600
C1914       C  0.96398121  0.14511425  0.62363309    -0.22000
H1915       H  0.94199692  0.18699415  0.64431599     0.19900
H1916       H  0.89351709  0.07721880  0.69087157     0.18700
H1917       H  0.85772115  0.09928322  0.72729329     0.14900
H1918       H  0.97884607  0.16550586  0.60903073     0.14800
H1919       H  0.90037734  0.19174100  0.68540208     0.33000
H1920       H  0.93520345  0.07251316  0.64982197     0.35700
C1921       C  0.68145595  0.05228951  0.83500276     0.21300
C1922       C  0.69502355  0.05604113  0.80455084    -0.38600
C1923       C  0.72490729  0.08282589  0.80072306     0.20300
C1924       C  0.73979375  0.10433829  0.82512283     0.22900
C1925       C  0.72640335  0.10043372  0.85557322    -0.39100
C1926       C  0.69679544  0.07353232  0.85954041     0.21700
N1927       N  0.65318882  0.02910327  0.84482509    -0.32300
C1928       C  0.65075763  0.03540724  0.87604533    -0.09900
C1929       C  0.67754664  0.06304599  0.88591175    -0.28700
N1930       N  0.76762987  0.12808681  0.81532203    -0.45300
C1931       C  0.77085347  0.12183791  0.78435269    -0.04600
C1932       C  0.74469390  0.09333512  0.77464786    -0.22000
H1933       H  0.68321773  0.03939800  0.78530686     0.19900
H1934       H  0.73816813  0.11715203  0.87476708     0.18700
H1935       H  0.68230186  0.07407002  0.90928105     0.14900
H1936       H  0.74061340  0.08117881  0.75202521     0.14800
H1937       H  0.63638981  0.01071094  0.83080519     0.33000
H1938       H  0.78316250  0.14756672  0.82901706     0.35700
C1939       C  0.69634608  0.05772698  0.64494166     0.21300
C1940       C  0.72753470  0.06628612  0.65219967    -0.38600
C1941       C  0.74250028  0.09050558  0.67493771     0.20300
C1942       C  0.72740892  0.10482283  0.68954476     0.22900
C1943       C  0.69635854  0.09641565  0.68214546    -0.39100
C1944       C  0.68154994  0.07249334  0.65920037     0.21700
N1945       N  0.67709016  0.03577712  0.62382072    -0.32300
C1946       C  0.65003246  0.03690837  0.62452118    -0.09900
C1947       C  0.65195238  0.05953413  0.64621111    -0.28700
N1948       N  0.74624545  0.12629956  0.71117188    -0.45300
C1949       C  0.77344972  0.12554630  0.71036562    -0.04600
C1950       C  0.77228229  0.10393094  0.68778611    -0.22000
H1951       H  0.73925711  0.05492711  0.64101524     0.19900
H1952       H  0.68458839  0.10767924  0.69342896     0.18700
H1953       H  0.63411641  0.06577364  0.65150819     0.14900
H1954       H  0.79037398  0.09806019  0.68244000     0.14800
H1955       H  0.68220385  0.02144220  0.60932760     0.33000
H1956       H  0.74079222  0.14014741  0.72603383     0.35700
C1957       C  0.83100297  0.66558087  0.28035575     0.46400
H1958       H  0.83082853  0.66533811  0.30682681    -0.02600
C1959       C  0.83258637  0.66758769  0.21826289     0.46500
H1960       H  0.83295931  0.66806170  0.19168571    -0.02600
C1961       C  0.79906988  0.64283890  0.26474998    -0.16300
C1962       C  0.84057610  0.69837801  0.26679673    -0.16000
C1963       C  0.85462090  0.65690298  0.26567919    -0.16400
C1964       C  0.80020440  0.64415036  0.23185963    -0.16400
C1965       C  0.84139221  0.69950520  0.23394175    -0.15900
C1966       C  0.85491249  0.65763798  0.23275469    -0.16300
O1967       O  0.59727702  0.56379853  0.02879172    -0.70800
O1968       O  0.56136715  0.59845344  0.46924628    -0.71000
O1969       O  0.56420689  0.59674756  0.03432098    -0.70900
O1970       O  0.59448334  0.56583660  0.46375778    -0.70900
O1971       O  0.55794018  0.52078951  0.47932244    -0.70800
O1972       O  0.51934202  0.55929667  0.01974353    -0.70900
O1973       O  0.52795394  0.54965117  0.45905944    -0.70800
O1974       O  0.54905537  0.53025186  0.03996044    -0.71000
V1975       V  0.57986429  0.58175868  0.49905796     1.35200
V1976       V  0.53893940  0.54035844  0.99950953     1.35200
C1977       C  0.57766542  0.53904653  0.04407898     0.78400
C1978       C  0.53672028  0.57836958  0.45426226     0.78500
C1979       C  0.53423742  0.58235364  0.03739581     0.78400
C1980       C  0.58037417  0.53567639  0.46112221     0.78300
O1981       O  0.93996845  0.96226050  0.01999969    -0.70800
O1982       O  0.97869465  0.53875345  0.47853579    -0.71000
O1983       O  0.97003971  0.52137109  0.03943192    -0.70900
O1984       O  0.94871570  0.97958422  0.45917801    -0.70900
O1985       O  0.90058637  0.96516425  0.47045822    -0.70800
O1986       O  0.93683573  0.53681434  0.02872232    -0.70900
O1987       O  0.93385229  0.53118655  0.46382261    -0.70800
O1988       O  0.90369911  0.97128338  0.03532359    -0.71000
V1989       V  0.95901114  0.50050924  0.99928277     1.35200
V1990       V  0.91819608  0.50111439  0.49951647     1.37300
C1991       C  0.91773961  0.95524546  0.03834164     0.78400
C1992       C  0.96383161  0.54674387  0.46074358     0.78500
C1993       C  0.96139818  0.54145541  0.04380987     0.78400
C1994       C  0.92006894  0.95963867  0.45545634     0.78300
O1995       O  0.53427089  0.93753482  0.47057137    -0.70800
O1996       O  0.96344282  0.90269712  0.02988393    -0.71000
O1997       O  0.96868617  0.90467525  0.46473109    -0.70900
O1998       O  0.52915094  0.93531442  0.03565624    -0.70900
O1999       O  0.53705409  0.98044665  0.02071152    -0.70800
O2000       O  0.96101876  0.94226246  0.47904664    -0.70900
O2001       O  0.97819161  0.95142484  0.04009406    -0.70800
O2002       O  0.51972778  0.97147909  0.45969147    -0.71000
V2003       V  0.99887399  0.91954805  0.00022982     1.35200
V2004       V  0.49900830  0.96100426  0.99990280     1.35200
C2005       C  0.53936128  0.96235763  0.45532115     0.78400
C2006       C  0.95840044  0.92270773  0.04473417     0.78500
C2007       C  0.95314264  0.91919498  0.46139853     0.78400
C2008       C  0.54492719  0.96546648  0.03854358     0.78300
C2009       C  0.51525211  0.62555872  0.10159443     0.03300
C2010       C  0.98203534  0.60727418  0.10363103     0.03200
C2011       C  0.96574876  0.58017213  0.08467662    -0.17300
C2012       C  0.98141906  0.57072356  0.06326339     0.03300
C2013       C  0.51539119  0.58989632  0.06041129     0.03200
C2014       C  0.53132790  0.61667407  0.07983467    -0.17300
H2015       H  0.55672984  0.63044260  0.07837655     0.05300
H2016       H  0.94032687  0.56631038  0.08642776     0.05300
C2017       C  0.87513847  0.89476332  0.10341680     0.03300
C2018       C  0.89222713  0.87834721  0.10499289     0.03200
C2019       C  0.91890616  0.88825896  0.08538077    -0.17300
C2020       C  0.92902556  0.91371429  0.06421158     0.03300
C2021       C  0.91062497  0.92952855  0.06194336     0.03200
C2022       C  0.88469951  0.92006899  0.08211984    -0.17300
H2023       H  0.87110033  0.93202480  0.08061885     0.05300
H2024       H  0.93268872  0.87654420  0.08715727     0.05300
C2025       C  0.98306814  0.60958543  0.39734076     0.03300
C2026       C  0.51615809  0.62369004  0.39445872     0.03200
C2027       C  0.53233646  0.61243026  0.41293088    -0.17300
C2028       C  0.51668858  0.58750625  0.43458252     0.03300
C2029       C  0.98274855  0.57302959  0.43769149     0.03200
C2030       C  0.96695214  0.58441954  0.41887737    -0.17300
H2031       H  0.94161959  0.57329057  0.42089786     0.05300
H2032       H  0.55769908  0.62363482  0.41075623     0.05300
C2033       C  0.89060497  0.87516066  0.39822283     0.03300
C2034       C  0.87348025  0.89146427  0.39837170     0.03200
C2035       C  0.88378161  0.91839368  0.41771400    -0.17300
C2036       C  0.91050985  0.92958560  0.43696216     0.03300
C2037       C  0.92672746  0.91147667  0.43847951     0.03200
C2038       C  0.91675561  0.88519732  0.41833187    -0.17300
H2039       H  0.92909441  0.87192180  0.41869251     0.05300
H2040       H  0.87138485  0.93160042  0.41698421     0.05300
C2041       C  0.62275259  0.51649269  0.39654797     0.03300
C2042       C  0.60479020  0.98311138  0.39489036     0.03200
C2043       C  0.57807605  0.96658703  0.41425011    -0.17300
C2044       C  0.56861396  0.98233217  0.43568187     0.03300
C2045       C  0.58756234  0.51659479  0.43805448     0.03200
C2046       C  0.61388475  0.53265616  0.41824039    -0.17300
H2047       H  0.62752822  0.55822858  0.41955127     0.05300
H2048       H  0.56451939  0.94099408  0.41270444     0.05300
C2049       C  0.62274640  0.51799149  0.10358680     0.03300
C2050       C  0.60702332  0.98449581  0.10253969     0.03200
C2051       C  0.58182932  0.96836756  0.08113040    -0.17300
C2052       C  0.57145665  0.98448928  0.06131527     0.03300
C2053       C  0.58697433  0.51881410  0.06336878     0.03200
C2054       C  0.61255244  0.53451089  0.08409843    -0.17300
H2055       H  0.62468579  0.56013857  0.08526298     0.05300
H2056       H  0.56960218  0.94276917  0.08027020     0.05300
C2057       C  0.66561281  0.83382999  0.21867416     0.46400
H2058       H  0.66552867  0.83416437  0.19215737    -0.02600
C2059       C  0.66716335  0.83406546  0.28077223     0.46500
H2060       H  0.66725824  0.83373872  0.30732445    -0.02600
C2061       C  0.64429351  0.80110439  0.23339676    -0.16300
C2062       C  0.69834306  0.84476291  0.23238759    -0.16000
C2063       C  0.65504497  0.85576117  0.23393774    -0.16400
C2064       C  0.64522639  0.80131587  0.26629035    -0.16400
C2065       C  0.69947657  0.84501005  0.26525041    -0.15900
C2066       C  0.65574797  0.85561366  0.26681848    -0.16300
C2067       C  0.62061953  0.92640641  0.14069821     0.21300
C2068       C  0.62100926  0.89792495  0.14321785    -0.38600
C2069       C  0.63092213  0.89247731  0.17276234     0.20300
C2070       C  0.64016276  0.91393444  0.19769520     0.22900
C2071       C  0.63930523  0.94221368  0.19535041    -0.39100
C2072       C  0.62901800  0.94748526  0.16589899     0.21700
N2073       N  0.61239959  0.93717865  0.11507016    -0.32300
C2074       C  0.61536450  0.96535046  0.12388039    -0.09900
C2075       C  0.62534750  0.97230428  0.15571308    -0.28700
N2076       N  0.64998378  0.90388410  0.22269118    -0.45300
C2077       C  0.64618724  0.87533325  0.21397316    -0.04600
C2078       C  0.63448754  0.86760455  0.18284861    -0.22000
H2079       H  0.61428089  0.88132884  0.12355546     0.19900
H2080       H  0.64630597  0.95894101  0.21492186     0.18700
H2081       H  0.62885800  0.99237809  0.16989383     0.14900
H2082       H  0.62939378  0.84668284  0.16924675     0.14800
H2083       H  0.60540225  0.92601563  0.09283554     0.33000
H2084       H  0.65988876  0.91656653  0.24368165     0.35700
C2085       C  0.64935165  0.90713206  0.32314906     0.21300
C2086       C  0.66000044  0.93091562  0.34653618    -0.38600
C2087       C  0.63923020  0.94181068  0.35431906     0.20300
C2088       C  0.60998982  0.92971316  0.34006945     0.22900
C2089       C  0.59946075  0.90614330  0.31647072    -0.39100
C2090       C  0.62030694  0.89538582  0.30855267     0.21700
N2091       N  0.66504171  0.89352841  0.31090090    -0.32300
C2092       C  0.64614791  0.87352919  0.28792034    -0.09900
C2093       C  0.61780928  0.87360360  0.28602954    -0.28700
N2094       N  0.59428964  0.94329154  0.35234011    -0.45300
C2095       C  0.61379388  0.96438272  0.37428463    -0.04600
C2096       C  0.64209143  0.96424396  0.37621043    -0.22000
H2097       H  0.68280367  0.94030264  0.35775996     0.19900
H2098       H  0.57675906  0.89692986  0.30506710     0.18700
H2099       H  0.59853708  0.86031764  0.26966612     0.14900
H2100       H  0.66167228  0.97808799  0.39205754     0.14800
H2101       H  0.68771852  0.89846575  0.31683899     0.33000
H2102       H  0.57162795  0.93840455  0.34638274     0.35700
C2103       C  0.75878043  0.86705046  0.32571476     0.21300
C2104       C  0.77176490  0.87580647  0.35642514    -0.38600
C2105       C  0.80050351  0.87670135  0.36096311     0.20300
C2106       C  0.81540444  0.86980977  0.33672936     0.22900
C2107       C  0.80240262  0.86107055  0.30599314    -0.39100
C2108       C  0.77343045  0.85977753  0.30157823     0.21700
N2109       N  0.73120747  0.86342130  0.31560924    -0.32300
C2110       C  0.72800106  0.85355367  0.28476688    -0.09900
C2111       C  0.75396807  0.85085503  0.27533351    -0.28700
N2112       N  0.84284581  0.87313015  0.34700887    -0.45300
C2113       C  0.84534894  0.88203626  0.37813430    -0.04600
C2114       C  0.81930016  0.88445734  0.38759834    -0.22000
H2115       H  0.76023000  0.88127992  0.37544676     0.19900
H2116       H  0.81384651  0.85543237  0.28701109     0.18700
H2117       H  0.75780742  0.84219536  0.25294729     0.14900
H2118       H  0.81501144  0.89158529  0.41074102     0.14800
H2119       H  0.71551777  0.86727820  0.32913027     0.33000
H2120       H  0.85932306  0.87075376  0.33322924     0.35700
C2121       C  0.59252546  0.74340244  0.32163327     0.21300
C2122       C  0.56876756  0.73072524  0.34491424    -0.38600
C2123       C  0.55783842  0.69907312  0.35310356     0.20300
C2124       C  0.56979666  0.68144537  0.33926190     0.22900
C2125       C  0.59332945  0.69401252  0.31568785    -0.39100
C2126       C  0.60419235  0.72567276  0.30740735     0.21700
N2127       N  0.60648910  0.77276866  0.30948766    -0.32300
C2128       C  0.62675721  0.77360748  0.28698021    -0.09900
C2129       C  0.62630754  0.74480164  0.28515288    -0.28700
N2130       N  0.55614326  0.65227093  0.35190296    -0.45300
C2131       C  0.53511752  0.65122993  0.37365889    -0.04600
C2132       C  0.53549429  0.67998263  0.37513088    -0.22000
H2133       H  0.55951428  0.74452310  0.35588543     0.19900
H2134       H  0.60253156  0.68018962  0.30466853     0.18700
H2135       H  0.63971637  0.73854426  0.26914115     0.14900
H2136       H  0.52178029  0.68621861  0.39072192     0.14800
H2137       H  0.60182600  0.79086829  0.31535029     0.33000
H2138       H  0.56090122  0.63419440  0.34625303     0.35700
C2139       C  0.81450138  0.89137535  0.15378409     0.21300
C2140       C  0.80055113  0.90304889  0.17509222    -0.38600
C2141       C  0.77068826  0.88078378  0.18644435     0.20300
C2142       C  0.75576781  0.84937915  0.17696990     0.22900
C2143       C  0.76974788  0.83771736  0.15570354    -0.39100
C2144       C  0.79971194  0.85993161  0.14454867     0.21700
N2145       N  0.84305466  0.90754699  0.14028509    -0.32300
C2146       C  0.84671631  0.88620404  0.12271201    -0.09900
C2147       C  0.81995648  0.85629465  0.12436999    -0.28700
N2148       N  0.72784605  0.83285528  0.19164265    -0.45300
C2149       C  0.72526645  0.85376179  0.21093598    -0.04600
C2150       C  0.75133540  0.88396720  0.20826722    -0.22000
H2151       H  0.81229370  0.92753904  0.18265269     0.19900
H2152       H  0.75831402  0.81307727  0.14871025     0.18700
H2153       H  0.81602543  0.83482224  0.11263492     0.14900
H2154       H  0.75570569  0.90511473  0.22101349     0.14800
H2155       H  0.85931132  0.93156252  0.14319296     0.33000
H2156       H  0.71189002  0.80868012  0.18943943     0.35700
C2157       C  0.57258889  0.69769994  0.13887144     0.21300
C2158       C  0.60063184  0.72674837  0.14113653    -0.38600
C2159       C  0.60657176  0.74169074  0.17103078     0.20300
C2160       C  0.58593902  0.72894678  0.19645203     0.22900
C2161       C  0.55815084  0.69967736  0.19432295    -0.39100
C2162       C  0.55243645  0.68451670  0.16459142     0.21700
N2163       N  0.56154290  0.67881673  0.11316056    -0.32300
C2164       C  0.53420507  0.65324209  0.12254074    -0.09900
C2165       C  0.52802217  0.65586458  0.15470047    -0.28700
N2166       N  0.59635043  0.74831977  0.22185473    -0.45300
C2167       C  0.62439420  0.77324573  0.21294234    -0.04600
C2168       C  0.63135283  0.76996772  0.18123517    -0.22000
H2169       H  0.61659607  0.73696044  0.12112204     0.19900
H2170       H  0.54216702  0.68948852  0.21432541     0.18700
H2171       H  0.50870502  0.63888628  0.16922162     0.14900
H2172       H  0.65177628  0.78604121  0.16738526     0.14800
H2173       H  0.57203854  0.68318809  0.09058052     0.33000
H2174       H  0.58417246  0.74505316  0.24327035     0.35700
C2175       C  0.85431501  0.77203538  0.19825319     0.21300
C2176       C  0.85409693  0.80066502  0.19573937    -0.38600
C2177       C  0.86684588  0.81772004  0.16735533     0.20300
C2178       C  0.87831741  0.80673694  0.14329235     0.22900
C2179       C  0.87890068  0.77842763  0.14598035    -0.39100
C2180       C  0.86662565  0.76166851  0.17442301     0.21700
N2181       N  0.84341397  0.75125855  0.22254598    -0.32300
C2182       C  0.84954466  0.72789141  0.21434081    -0.09900
C2183       C  0.86374292  0.73352287  0.18434370    -0.28700
N2184       N  0.88831822  0.82666336  0.11841648    -0.45300
C2185       C  0.88349894  0.85087468  0.12647755    -0.04600
C2186       C  0.87056942  0.84630401  0.15724618    -0.22000
H2187       H  0.84472422  0.80901061  0.21443515     0.19900
H2188       H  0.88819356  0.77003735  0.12724754     0.18700
H2189       H  0.87111040  0.71906547  0.17146076     0.14900
H2190       H  0.86493458  0.86180289  0.17069946     0.14800
H2191       H  0.83187607  0.75268328  0.24294728     0.33000
H2192       H  0.89748585  0.82359501  0.09700239     0.35700
C2193       C  0.84717248  0.75483878  0.32562114     0.21300
C2194       C  0.83724301  0.76683444  0.35088921    -0.38600
C2195       C  0.85735606  0.79880324  0.35849698     0.20300
C2196       C  0.88542559  0.81718365  0.34245712     0.22900
C2197       C  0.89526267  0.80524833  0.31713631    -0.39100
C2198       C  0.87497830  0.77345411  0.30927223     0.21700
N2199       N  0.83182386  0.72557447  0.31305411    -0.32300
C2200       C  0.84966640  0.72580897  0.28815035    -0.09900
C2201       C  0.87699936  0.75511798  0.28531209    -0.28700
N2202       N  0.90053543  0.84664355  0.35443549    -0.45300
C2203       C  0.88178580  0.84720654  0.37793366    -0.04600
C2204       C  0.85461741  0.81783616  0.38127785    -0.22000
H2205       H  0.81532280  0.75244637  0.36343999     0.19900
H2206       H  0.91696274  0.81975624  0.30427860     0.18700
H2207       H  0.89547919  0.76218987  0.26767312     0.14900
H2208       H  0.83576054  0.81126364  0.39835523     0.14800
H2209       H  0.81006467  0.70690119  0.32025618     0.33000
H2210       H  0.92224439  0.86531321  0.34708276     0.35700
C2211       C  0.94718415  0.63404231  0.33735925     0.21300
C2212       C  0.94304745  0.64352806  0.30697170    -0.38600
C2213       C  0.91580636  0.64569128  0.30307185     0.20300
C2214       C  0.89411065  0.63850640  0.32731359     0.22900
C2215       C  0.89851965  0.62956189  0.35790893    -0.39100
C2216       C  0.92599207  0.62779107  0.36196097     0.21700
N2217       N  0.97040289  0.62887058  0.34673739    -0.32300
C2218       C  0.96435285  0.61976578  0.37781824    -0.09900
C2219       C  0.93676617  0.61887085  0.38807416    -0.28700
N2220       N  0.86963569  0.64124778  0.31704665    -0.45300
C2221       C  0.87578097  0.65045294  0.28598134    -0.04600
C2222       C  0.90484135  0.65405109  0.27677677    -0.22000
H2223       H  0.95961659  0.64849429  0.28768048     0.19900
H2224       H  0.88163609  0.62400786  0.37700624     0.18700
H2225       H  0.92569522  0.61199754  0.41134243     0.14900
H2226       H  0.91706507  0.66234116  0.25426893     0.14800
H2227       H  0.98838733  0.63017478  0.33228383     0.33000
H2228       H  0.84980649  0.63661784  0.33042453     0.35700
C2229       C  0.90734073  0.65233546  0.17705435     0.21300
C2230       C  0.93149723  0.66338765  0.15420436    -0.38600
C2231       C  0.94129660  0.64194754  0.14518139     0.20300
C2232       C  0.92786609  0.61173284  0.15779462     0.22900
C2233       C  0.90381778  0.60072554  0.18076934    -0.39100
C2234       C  0.89415835  0.62223758  0.18994573     0.21700
N2235       N  0.89447479  0.66840834  0.19014669    -0.32300
C2236       C  0.87340396  0.64861612  0.21188951    -0.09900
C2237       C  0.87218270  0.61943506  0.21223393    -0.28700
N2238       N  0.94096049  0.59578810  0.14491553    -0.45300
C2239       C  0.96311553  0.61609329  0.12423312    -0.04600
C2240       C  0.96398104  0.64511380  0.12363324    -0.22000
H2241       H  0.94199686  0.68699382  0.14431596     0.19900
H2242       H  0.89351735  0.57721886  0.19087241     0.18700
H2243       H  0.85772157  0.59928356  0.22729408     0.14900
H2244       H  0.97884582  0.66550531  0.10903074     0.14800
H2245       H  0.90037742  0.69174106  0.18540200     0.33000
H2246       H  0.93520346  0.57251292  0.14982263     0.35700
C2247       C  0.68145570  0.55229003  0.33500246     0.21300
C2248       C  0.69502340  0.55604163  0.30455058    -0.38600
C2249       C  0.72490705  0.58282652  0.30072278     0.20300
C2250       C  0.73979335  0.60433909  0.32512248     0.22900
C2251       C  0.72640280  0.60043457  0.35557279    -0.39100
C2252       C  0.69679500  0.57353302  0.35954002     0.21700
N2253       N  0.65318870  0.52910359  0.34482484    -0.32300
C2254       C  0.65075736  0.53540762  0.37604502    -0.09900
C2255       C  0.67754618  0.56304662  0.38591136    -0.28700
N2256       N  0.76762957  0.62808759  0.31532177    -0.45300
C2257       C  0.77085334  0.62183845  0.28435254    -0.04600
C2258       C  0.74469383  0.59333562  0.27464769    -0.22000
H2259       H  0.68321775  0.53939833  0.28530670     0.19900
H2260       H  0.73816745  0.61715298  0.37476661     0.18700
H2261       H  0.68230127  0.57407075  0.40928059     0.14900
H2262       H  0.74061352  0.58117917  0.25202513     0.14800
H2263       H  0.63638985  0.51071110  0.33080499     0.33000
H2264       H  0.78316215  0.64756754  0.32901678     0.35700
C2265       C  0.69634706  0.55772756  0.14494074     0.21300
C2266       C  0.72753568  0.56628681  0.15219894    -0.38600
C2267       C  0.74250106  0.59050619  0.17493713     0.20300
C2268       C  0.72740951  0.60482327  0.18954413     0.22900
C2269       C  0.69635916  0.59641602  0.18214461    -0.39100
C2270       C  0.68155076  0.57249379  0.15919940     0.21700
N2271       N  0.67709125  0.53577765  0.12381975    -0.32300
C2272       C  0.65003346  0.53690877  0.12452013    -0.09900
C2273       C  0.65195324  0.55953448  0.14621005    -0.28700
N2274       N  0.74624582  0.62629988  0.21117147    -0.45300
C2275       C  0.77345013  0.62554671  0.21036541    -0.04600
C2276       C  0.77228297  0.60393154  0.18778579    -0.22000
H2277       H  0.73925823  0.55492790  0.14101458     0.19900
H2278       H  0.68458886  0.60767945  0.19342809     0.18700
H2279       H  0.63411716  0.56577384  0.15150711     0.14900
H2280       H  0.79037476  0.59806091  0.18243978     0.14800
H2281       H  0.68220504  0.52144277  0.10932669     0.33000
H2282       H  0.74079240  0.64014759  0.22603341     0.35700
C2283       C  0.83100278  0.66558084  0.78035547     0.46400
H2284       H  0.83082842  0.66533827  0.80682652    -0.02600
C2285       C  0.83258601  0.66758727  0.71826260     0.46500
H2286       H  0.83295886  0.66806110  0.69168542    -0.02600
C2287       C  0.79906964  0.64283877  0.76474983    -0.16300
C2288       C  0.84057595  0.69837792  0.76679621    -0.16000
C2289       C  0.85462063  0.65690281  0.76567898    -0.16400
C2290       C  0.80020409  0.64415007  0.73185948    -0.16400
C2291       C  0.84139197  0.69950488  0.73394122    -0.15900
C2292       C  0.85491213  0.65763763  0.73275447    -0.16300
O2293       O  0.59727696  0.56379878  0.52879185    -0.70800
O2294       O  0.56136698  0.59845308  0.96924636    -0.71000
O2295       O  0.56420698  0.59674795  0.53432093    -0.70900
O2296       O  0.59448321  0.56583633  0.96375771    -0.70900
O2297       O  0.55794013  0.52078922  0.97932240    -0.70800
O2298       O  0.51934211  0.55929715  0.51974335    -0.70900
O2299       O  0.52795373  0.54965080  0.95905955    -0.70800
O2300       O  0.54905524  0.53025220  0.53996045    -0.71000
V2301       V  0.57986419  0.58175835  0.99905795     1.35200
V2302       V  0.53893946  0.54035881  0.49950947     1.35200
C2303       C  0.57766527  0.53904682  0.54407911     0.78400
C2304       C  0.53672009  0.57836923  0.95426236     0.78500
C2305       C  0.53423752  0.58235408  0.53739569     0.78400
C2306       C  0.58037408  0.53567612  0.96112216     0.78300
O2307       O  0.93996865  0.96226069  0.51999963    -0.70800
O2308       O  0.97869427  0.53875325  0.97853572    -0.71000
O2309       O  0.97003992  0.52137136  0.53943199    -0.70900
O2310       O  0.94871571  0.97958397  0.95917810    -0.70900
O2311       O  0.90058627  0.96516383  0.97045811    -0.70800
O2312       O  0.93683592  0.53681454  0.52872222    -0.70900
O2313       O  0.93385188  0.53118634  0.96382266    -0.70800
O2314       O  0.90369942  0.97128364  0.53532372    -0.71000
V2315       V  0.95901145  0.50050946  0.49928283     1.35200
V2316       V  0.91819579  0.50111420  0.99951654     1.37300
C2317       C  0.91773986  0.95524566  0.53834165     0.78400
C2318       C  0.96383119  0.54674365  0.96074353     0.78500
C2319       C  0.96139836  0.54145569  0.54380982     0.78400
C2320       C  0.92006898  0.95963835  0.95545635     0.78300
O2321       O  0.53427093  0.93753478  0.97057133    -0.70800
O2322       O  0.96344303  0.90269730  0.52988357    -0.71000
O2323       O  0.96868616  0.90467491  0.96473142    -0.70900
O2324       O  0.52915086  0.93531427  0.53565628    -0.70900
O2325       O  0.53705402  0.98044653  0.52071162    -0.70800
O2326       O  0.96101869  0.94226213  0.97904681    -0.70900
O2327       O  0.97819175  0.95142496  0.54009390    -0.70800
O2328       O  0.51972797  0.97147914  0.95969131    -0.71000
V2329       V  0.99887411  0.91954835  0.50022936     1.35200
V2330       V  0.49900821  0.96100411  0.49990299     1.35200
C2331       C  0.53936140  0.96235759  0.95532105     0.78400
C2332       C  0.95840063  0.92270782  0.54473391     0.78500
C2333       C  0.95314266  0.91919466  0.96139870     0.78400
C2334       C  0.54492704  0.96546632  0.53854372     0.78300
C2335       C  0.51525213  0.62555905  0.60159442     0.03300
C2336       C  0.98203537  0.60727483  0.60363047     0.03200
C2337       C  0.96574886  0.58017267  0.58467619    -0.17300
C2338       C  0.98141921  0.57072395  0.56326321     0.03300
C2339       C  0.51539128  0.58989673  0.56041118     0.03200
C2340       C  0.53132795  0.61667453  0.57983454    -0.17300
H2341       H  0.55672989  0.63044317  0.57837633     0.05300
H2342       H  0.94032696  0.56631089  0.58642730     0.05300
C2343       C  0.87513842  0.89476297  0.60341629     0.03300
C2344       C  0.89222699  0.87834675  0.60499215     0.03200
C2345       C  0.91890612  0.88825866  0.58538016    -0.17300
C2346       C  0.92902571  0.91371427  0.56421129     0.03300
C2347       C  0.91062517  0.92952861  0.56194323     0.03200
C2348       C  0.88469964  0.92006889  0.58211963    -0.17300
H2349       H  0.87110053  0.93202478  0.58061878     0.05300
H2350       H  0.93268859  0.87654378  0.58715650     0.05300
C2351       C  0.98306770  0.60958513  0.89734055     0.03300
C2352       C  0.51615832  0.62369024  0.89445912     0.03200
C2353       C  0.53233650  0.61243013  0.91293112    -0.17300
C2354       C  0.51668848  0.58750600  0.93458260     0.03300
C2355       C  0.98274806  0.57302930  0.93769132     0.03200
C2356       C  0.96695168  0.58441929  0.91887722    -0.17300
H2357       H  0.94161912  0.57329043  0.92089779     0.05300
H2358       H  0.55769912  0.62363458  0.91075652     0.05300
C2359       C  0.89060537  0.87516067  0.89822250     0.03300
C2360       C  0.87348058  0.89146421  0.89837154     0.03200
C2361       C  0.88378188  0.91839353  0.91771391    -0.17300
C2362       C  0.91051004  0.92958536  0.93696213     0.03300
C2363       C  0.92672765  0.91147644  0.93847948     0.03200
C2364       C  0.91675595  0.88519724  0.91833163    -0.17300
H2365       H  0.92909479  0.87192175  0.91869221     0.05300
H2366       H  0.87138513  0.93160028  0.91698416     0.05300
C2367       C  0.62275264  0.51649254  0.89654808     0.03300
C2368       C  0.60479027  0.98311113  0.89489022     0.03200
C2369       C  0.57807616  0.96658681  0.91425001    -0.17300
C2370       C  0.56861410  0.98233203  0.93568171     0.03300
C2371       C  0.58756231  0.51659455  0.93805448     0.03200
C2372       C  0.61388473  0.53265598  0.91824043    -0.17300
H2373       H  0.62752814  0.55822839  0.91955127     0.05300
H2374       H  0.56451950  0.94099386  0.91270441     0.05300
C2375       C  0.62274585  0.51799156  0.60358720     0.03300
C2376       C  0.60702256  0.98449539  0.60254032     0.03200
C2377       C  0.58182879  0.96836725  0.58113079    -0.17300
C2378       C  0.57145623  0.98448904  0.56131564     0.03300
C2379       C  0.58697401  0.51881434  0.56336905     0.03200
C2380       C  0.61255195  0.53451106  0.58409888    -0.17300
H2381       H  0.62468528  0.56013873  0.58526354     0.05300
H2382       H  0.56960177  0.94276887  0.58027035     0.05300
C2383       C  0.66561308  0.83382986  0.71867431     0.46400
H2384       H  0.66552883  0.83416412  0.69215753    -0.02600
C2385       C  0.66716387  0.83406575  0.78077238     0.46500
H2386       H  0.66725888  0.83373921  0.80732461    -0.02600
C2387       C  0.64429394  0.80110432  0.73339714    -0.16300
C2388       C  0.69834341  0.84476298  0.73238764    -0.16000
C2389       C  0.65504518  0.85576105  0.73393775    -0.16400
C2390       C  0.64522693  0.80131604  0.76629074    -0.16400
C2391       C  0.69947704  0.84501038  0.76525045    -0.15900
C2392       C  0.65574833  0.85561375  0.76681849    -0.16300
C2393       C  0.62061880  0.92640584  0.64069852     0.21300
C2394       C  0.62100863  0.89792440  0.64321805    -0.38600
C2395       C  0.63092171  0.89247680  0.67276247     0.20300
C2396       C  0.64016245  0.91393399  0.69769533     0.22900
C2397       C  0.63930474  0.94221313  0.69535063    -0.39100
C2398       C  0.62901730  0.94748465  0.66589934     0.21700
N2399       N  0.61239881  0.93717814  0.61507054    -0.32300
C2400       C  0.61536371  0.96534993  0.62388090    -0.09900
C2401       C  0.62534672  0.97230366  0.65571358    -0.28700
N2402       N  0.64998386  0.90388390  0.72269125    -0.45300
C2403       C  0.64618731  0.87533301  0.71397315    -0.04600
C2404       C  0.63448735  0.86760414  0.68284866    -0.22000
H2405       H  0.61428024  0.88132833  0.62355565     0.19900
H2406       H  0.64630556  0.95894047  0.71492206     0.18700
H2407       H  0.62885724  0.99237743  0.66989440     0.14900
H2408       H  0.62939358  0.84668241  0.66924681     0.14800
H2409       H  0.60540149  0.92601518  0.59283590     0.33000
H2410       H  0.65988906  0.91656647  0.74368159     0.35700
C2411       C  0.64935233  0.90713264  0.82314852     0.21300
C2412       C  0.66000104  0.93091618  0.84653564    -0.38600
C2413       C  0.63923071  0.94181112  0.85431854     0.20300
C2414       C  0.60999037  0.92971363  0.84006882     0.22900
C2415       C  0.59946141  0.90614387  0.81647001    -0.39100
C2416       C  0.62030759  0.89538636  0.80855209     0.21700
N2417       N  0.66504245  0.89352886  0.81090064    -0.32300
C2418       C  0.64614840  0.87352943  0.78792023    -0.09900
C2419       C  0.61780979  0.87360390  0.78602925    -0.28700
N2420       N  0.59428997  0.94329169  0.85233966    -0.45300
C2421       C  0.61379403  0.96438258  0.87428448    -0.04600
C2422       C  0.64209169  0.96424403  0.87621024    -0.22000
H2423       H  0.68280417  0.94030313  0.85775955     0.19900
H2424       H  0.57675971  0.89693037  0.80506641     0.18700
H2425       H  0.59853752  0.86031782  0.76966591     0.14900
H2426       H  0.66167244  0.97808795  0.89205752     0.14800
H2427       H  0.68771922  0.89846617  0.81683879     0.33000
H2428       H  0.57162828  0.93840466  0.84638224     0.35700
C2429       C  0.75878113  0.86705143  0.82571463     0.21300
C2430       C  0.77176559  0.87580734  0.85642503    -0.38600
C2431       C  0.80050408  0.87670195  0.86096300     0.20300
C2432       C  0.81540493  0.86981030  0.83672923     0.22900
C2433       C  0.80240315  0.86107122  0.80599301    -0.39100
C2434       C  0.77343108  0.85977839  0.80157811     0.21700
N2435       N  0.73120812  0.86342220  0.81560916    -0.32300
C2436       C  0.72800165  0.85355437  0.78476685    -0.09900
C2437       C  0.75396865  0.85085574  0.77533346    -0.28700
N2438       N  0.84284615  0.87313037  0.84700875    -0.45300
C2439       C  0.84534928  0.88203633  0.87813420    -0.04600
C2440       C  0.81930063  0.88445762  0.88759827    -0.22000
H2441       H  0.76023073  0.88128080  0.87544667     0.19900
H2442       H  0.81384695  0.85543290  0.78701098     0.18700
H2443       H  0.75780790  0.84219584  0.75294734     0.14900
H2444       H  0.81501194  0.89158555  0.91074098     0.14800
H2445       H  0.71551840  0.86727906  0.82913020     0.33000
H2446       H  0.85932334  0.87075389  0.83322909     0.35700
C2447       C  0.59252638  0.74340294  0.82163421     0.21300
C2448       C  0.56876842  0.73072576  0.84491514    -0.38600
C2449       C  0.55783927  0.69907364  0.85310452     0.20300
C2450       C  0.56979761  0.68144592  0.83926299     0.22900
C2451       C  0.59333050  0.69401308  0.81568906    -0.39100
C2452       C  0.60419334  0.72567327  0.80740845     0.21700
N2453       N  0.60648986  0.77276902  0.80948831    -0.32300
C2454       C  0.62675791  0.77360779  0.78698084    -0.09900
C2455       C  0.62630839  0.74480204  0.78515380    -0.28700
N2456       N  0.55614399  0.65227141  0.85190387    -0.45300
C2457       C  0.53511799  0.65123028  0.87365952    -0.04600
C2458       C  0.53549486  0.67998302  0.87513156    -0.22000
H2459       H  0.55951501  0.74452359  0.85588615     0.19900
H2460       H  0.60253262  0.68019016  0.80466977     0.18700
H2461       H  0.63971721  0.73854461  0.76914211     0.14900
H2462       H  0.52178068  0.68621893  0.89072242     0.14800
H2463       H  0.60182665  0.79086862  0.81535075     0.33000
H2464       H  0.56090193  0.63419486  0.84625393     0.35700
C2465       C  0.81450142  0.89137504  0.65378372     0.21300
C2466       C  0.80055124  0.90304868  0.67509183    -0.38600
C2467       C  0.77068844  0.88078361  0.68644413     0.20300
C2468       C  0.75576799  0.84937891  0.67696990     0.22900
C2469       C  0.76974800  0.83771703  0.65570355    -0.39100
C2470       C  0.79971199  0.85993127  0.64454846     0.21700
N2471       N  0.84305461  0.90754663  0.64028458    -0.32300
C2472       C  0.84671626  0.88620367  0.62271154    -0.09900
C2473       C  0.81995646  0.85629427  0.62436970    -0.28700
N2474       N  0.72784629  0.83285510  0.69164278    -0.45300
C2475       C  0.72526672  0.85376175  0.71093594    -0.04600
C2476       C  0.75133564  0.88396715  0.70826697    -0.22000
H2477       H  0.81229381  0.92753888  0.68265214     0.19900
H2478       H  0.75831415  0.81307691  0.64871041     0.18700
H2479       H  0.81602539  0.83482182  0.61263471     0.14900
H2480       H  0.75570595  0.90511477  0.72101308     0.14800
H2481       H  0.85931125  0.93156218  0.64319235     0.33000
H2482       H  0.71189027  0.80867992  0.68943974     0.35700
C2483       C  0.57258893  0.69770019  0.63887156     0.21300
C2484       C  0.60063193  0.72674857  0.64113676    -0.38600
C2485       C  0.60657204  0.74169072  0.67103115     0.20300
C2486       C  0.58593945  0.72894662  0.69645250     0.22900
C2487       C  0.55815118  0.69967727  0.69432333    -0.39100
C2488       C  0.55243658  0.68451681  0.66459163     0.21700
N2489       N  0.56154292  0.67881718  0.61316043    -0.32300
C2490       C  0.53420507  0.65324244  0.62254075    -0.09900
C2491       C  0.52802223  0.65586475  0.65470060    -0.28700
N2492       N  0.59635095  0.74831946  0.72185539    -0.45300
C2493       C  0.62439468  0.77324552  0.71294285    -0.04600
C2494       C  0.63135317  0.76996765  0.68123556    -0.22000
H2495       H  0.61659604  0.73696076  0.62112225     0.19900
H2496       H  0.54216747  0.68948832  0.71432582     0.18700
H2497       H  0.50870515  0.63888634  0.66922178     0.14900
H2498       H  0.65177650  0.78604125  0.66738554     0.14800
H2499       H  0.57203852  0.68318864  0.59058037     0.33000
H2500       H  0.58417307  0.74505274  0.74327109     0.35700
C2501       C  0.85431468  0.77203478  0.69825217     0.21300
C2502       C  0.85409672  0.80066446  0.69573834    -0.38600
C2503       C  0.86684556  0.81771935  0.66735425     0.20300
C2504       C  0.87831683  0.80673611  0.64329116     0.22900
C2505       C  0.87889995  0.77842671  0.64597914    -0.39100
C2506       C  0.86662507  0.76166771  0.67442192     0.21700
N2507       N  0.84341381  0.75125816  0.72254513    -0.32300
C2508       C  0.84954438  0.72789093  0.71434004    -0.09900
C2509       C  0.86374237  0.73352212  0.68434278    -0.28700
N2510       N  0.88831769  0.82666260  0.61841534    -0.45300
C2511       C  0.88349866  0.85087406  0.62647658    -0.04600
C2512       C  0.87056930  0.84630342  0.65724525    -0.22000
H2513       H  0.84472427  0.80901022  0.71443421     0.19900
H2514       H  0.88819269  0.77003632  0.62724628     0.18700
H2515       H  0.87110969  0.71906458  0.67145985     0.14900
H2516       H  0.86493474  0.86180243  0.67069868     0.14800
H2517       H  0.83187610  0.75268309  0.74294649     0.33000
H2518       H  0.89748525  0.82359427  0.59700120     0.35700
C2519       C  0.84717246  0.75483892  0.82562037     0.21300
C2520       C  0.83724308  0.76683466  0.85088843    -0.38600
C2521       C  0.85735624  0.79880341  0.85849627     0.20300
C2522       C  0.88542580  0.81718372  0.84245648     0.22900
C2523       C  0.89526284  0.80524839  0.81713563    -0.39100
C2524       C  0.87497833  0.77345418  0.80927147     0.21700
N2525       N  0.83182369  0.72557454  0.81305341    -0.32300
C2526       C  0.84966629  0.72580899  0.78814967    -0.09900
C2527       C  0.87699932  0.75511797  0.78531137    -0.28700
N2528       N  0.90053567  0.84664349  0.85443505    -0.45300
C2529       C  0.88178616  0.84720660  0.87793322    -0.04600
C2530       C  0.85461769  0.81783631  0.88127723    -0.22000
H2531       H  0.81532286  0.75244666  0.86343921     0.19900
H2532       H  0.91696297  0.81975624  0.80427798     0.18700
H2533       H  0.89547918  0.76218978  0.76767244     0.14900
H2534       H  0.83576081  0.81126384  0.89835456     0.14800
H2535       H  0.81006450  0.70690129  0.82025552     0.33000
H2536       H  0.92224470  0.86531309  0.84708240     0.35700
C2537       C  0.94718377  0.63404208  0.83735907     0.21300
C2538       C  0.94304697  0.64352754  0.80697143    -0.38600
C2539       C  0.91580606  0.64569108  0.80307168     0.20300
C2540       C  0.89411067  0.63850680  0.82731357     0.22900
C2541       C  0.89851980  0.62956261  0.85790902    -0.39100
C2542       C  0.92599202  0.62779143  0.86196095     0.21700
N2543       N  0.97040220  0.62887002  0.84673726    -0.32300
C2544       C  0.96435247  0.61976558  0.87781810    -0.09900
C2545       C  0.93676614  0.61887122  0.88807415    -0.28700
N2546       N  0.86963589  0.64124831  0.81704656    -0.45300
C2547       C  0.87578078  0.65045290  0.78598116    -0.04600
C2548       C  0.90484092  0.65405060  0.77677651    -0.22000
H2549       H  0.95961587  0.64849327  0.78768004     0.19900
H2550       H  0.88163644  0.62400901  0.87700648     0.18700
H2551       H  0.92569540  0.61199827  0.91134251     0.14900
H2552       H  0.91706446  0.66234021  0.75426855     0.14800
H2553       H  0.98838642  0.63017379  0.83228362     0.33000
H2554       H  0.84980686  0.63661874  0.83042455     0.35700
C2555       C  0.90734054  0.65233555  0.67705413     0.21300
C2556       C  0.93149715  0.66338797  0.65420425    -0.38600
C2557       C  0.94129649  0.64194791  0.64518105     0.20300
C2558       C  0.92786587  0.61173307  0.65779397     0.22900
C2559       C  0.90381744  0.60072556  0.68076855    -0.39100
C2560       C  0.89415803  0.62223753  0.68994517     0.21700
N2561       N  0.89447459  0.66840828  0.69014669    -0.32300
C2562       C  0.87340366  0.64861592  0.71188929    -0.09900
C2563       C  0.87218230  0.61943483  0.71223336    -0.28700
N2564       N  0.94096031  0.59578841  0.64491476    -0.45300
C2565       C  0.96311548  0.61609380  0.62423257    -0.04600
C2566       C  0.96398104  0.64511435  0.62363296    -0.22000
H2567       H  0.94199687  0.68699426  0.64431612     0.19900
H2568       H  0.89351693  0.57721878  0.69087138     0.18700
H2569       H  0.85772105  0.59928319  0.72729328     0.14900
H2570       H  0.97884593  0.66550601  0.60903067     0.14800
H2571       H  0.90037731  0.69174107  0.68540228     0.33000
H2572       H  0.93520323  0.57251318  0.64982165     0.35700
C2573       C  0.68145554  0.55228991  0.83500247     0.21300
C2574       C  0.69502316  0.55604159  0.80455055    -0.38600
C2575       C  0.72490690  0.58282636  0.80072277     0.20300
C2576       C  0.73979338  0.60433880  0.82512256     0.22900
C2577       C  0.72640294  0.60043417  0.85557294    -0.39100
C2578       C  0.69679503  0.57353274  0.85954014     0.21700
N2579       N  0.65318839  0.52910351  0.84482473    -0.32300
C2580       C  0.65075731  0.53540750  0.87604506    -0.09900
C2581       C  0.67754629  0.56304633  0.88591152    -0.28700
N2582       N  0.76762967  0.62808740  0.81532191    -0.45300
C2583       C  0.77085319  0.62183829  0.78435251    -0.04600
C2584       C  0.74469356  0.59333551  0.77464761    -0.22000
H2585       H  0.68321738  0.53939845  0.78530660     0.19900
H2586       H  0.73816771  0.61715243  0.87476681     0.18700
H2587       H  0.68230151  0.57407032  0.90928085     0.14900
H2588       H  0.74061308  0.58117912  0.75202498     0.14800
H2589       H  0.63638943  0.51071115  0.83080485     0.33000
H2590       H  0.78316232  0.64756726  0.82901697     0.35700
C2591       C  0.69634654  0.55772744  0.64494087     0.21300
C2592       C  0.72753517  0.56628666  0.65219894    -0.38600
C2593       C  0.74250063  0.59050600  0.67493714     0.20300
C2594       C  0.72740914  0.60482312  0.68954426     0.22900
C2595       C  0.69635878  0.59641588  0.68214489    -0.39100
C2596       C  0.68155029  0.57249367  0.65919969     0.21700
N2597       N  0.67709071  0.53577755  0.62381983    -0.32300
C2598       C  0.65003293  0.53690874  0.62452046    -0.09900
C2599       C  0.65195273  0.55953440  0.64621049    -0.28700
N2600       N  0.74624549  0.62629978  0.71117161    -0.45300
C2601       C  0.77344977  0.62554646  0.71036537    -0.04600
C2602       C  0.77228256  0.60393128  0.68778571    -0.22000
H2603       H  0.73925765  0.55492774  0.64101449     0.19900
H2604       H  0.68458854  0.60767931  0.69342846     0.18700
H2605       H  0.63411666  0.56577378  0.65150768     0.14900
H2606       H  0.79037432  0.59806062  0.68243961     0.14800
H2607       H  0.68220445  0.52144271  0.60932666     0.33000
H2608       H  0.74079214  0.64014750  0.72603359     0.35700
loop_ 
_geom_bond_atom_site_label_1 
_geom_bond_atom_site_label_2 
_geom_bond_distance 
_geom_bond_site_symmetry_2 
_ccdc_geom_bond_type 
C1            H2   1.106       .  S
C1            C7   1.544       .  S
C1            C6   1.534       .  S
C1            C5   1.542       .  S
C3            H4   1.111       .  S
C3            C9   1.538       .  S
C3            C8   1.531       .  S
C3           C10   1.528       .  S
C5            C8   1.376       .  D
C5          C301   1.491       .  S
C6            C9   1.374       .  D
C6          C244   1.479       .  S
C7           C10   1.377       .  D
C7          C265   1.492       .  S
C8          C319   1.472       .  S
C9          C226   1.483       .  S
C10         C280   1.473       .  S
O11          C21   1.278       .  A
O11         V345   1.948   1_554  S
O12          C22   1.278       .  A
O12          V19   1.945       .  S
O13          C23   1.281       .  A
O13         V345   1.962   1_554  S
O14          C24   1.280       .  A
O14          V19   1.960       .  S
O15          C24   1.233       .  A
O15         V346   1.836       .  S
O16          C23   1.234       .  A
O16          V20   1.836   1_554  S
O17          C22   1.260       .  A
O17         V346   1.898       .  S
O18          C21   1.259       .  A
O18          V20   1.897   1_554  S
V19         O337   1.948       .  S
V19         O339   1.962       .  S
V19         V346   2.017       .  T
V20         O341   1.836       .  S
V20         O343   1.898       .  S
V20         V345   2.017       .  T
C21          C97   1.512       .  S
C22          C72   1.510       .  S
C23          C57   1.500       .  S
C24          C89   1.497       .  S
O25          C35   1.233       .  A
O25         V685   1.835   1_554  S
O26          C36   1.234       .  A
O26         V359   1.836       .  S
O27          C37   1.259       .  A
O27          V33   1.895   1_554  S
O28          C38   1.258       .  A
O28        V1011   1.894       .  S
O29          C38   1.278       .  A
O29         V686   1.945       .  S
O30          C37   1.277       .  A
O30         V360   1.941   1_554  S
O31          C36   1.282       .  A
O31          V34   1.962       .  S
O32          C35   1.280       .  A
O32        V1012   1.958   1_554  S
V33         O677   1.835   1_546  S
V33         O352   1.836       .  S
V33        O1006   1.894   1_545  S
V33         V360   2.017       .  T
V34         O681   1.945   1_545  S
V34         O356   1.941       .  S
V34        O1010   1.958   1_545  S
V34         V359   2.017       .  T
C35          C65   1.495       .  S
C36          C73   1.500       .  S
C37          C56   1.505       .  S
C38          C80   1.509       .  S
O39          C49   1.279       .  A
O39        V1677   1.949   1_455  S
O40          C50   1.279       .  A
O40          V47   1.951       .  S
O41          C51   1.281       .  A
O41         V373   1.963       .  S
O42          C52   1.281       .  A
O42        V1351   1.963   1_455  S
O43          C52   1.234       .  A
O43          V48   1.838   1_454  S
O44          C51   1.234       .  A
O44        V1678   1.837       .  S
O45          C50   1.260       .  A
O45        V1352   1.899   1_554  S
O46          C49   1.259       .  A
O46         V374   1.897   1_455  S
V47        O1669   1.949   1_554  S
V47         O367   1.963   1_554  S
V47        O1346   1.963       .  S
V47        V1352   2.018   1_554  T
V48        O1674   1.837       .  S
V48        O1349   1.899   1_556  S
V48         O372   1.897   1_655  S
V48        V1351   2.018   1_556  T
C49          C88   1.513       .  S
C50          C64   1.516       .  S
C51          C81   1.502       .  S
C52          C96   1.503       .  S
C53         C208   1.484       .  S
C53          C58   1.405       .  A
C53        C1358   1.418   1_455  A
C54         C283   1.477       .  S
C54          C55   1.400       .  A
C54        C1357   1.418       .  A
C55          C56   1.398       .  A
C55          H60   1.085       .  S
C56        C1361   1.454       .  A
C57          C58   1.399       .  A
C57        C1360   1.454   1_455  A
C58          H59   1.083       .  S
C61         C190   1.479       .  S
C61          C62   1.420       .  A
C61          C66   1.400       .  A
C62         C229   1.489       .  S
C62          C63   1.409       .  A
C63          C64   1.400       .  A
C63          H68   1.084       .  S
C64          C65   1.453       .  A
C65          C66   1.398       .  A
C66          H67   1.085       .  S
C69         C262   1.488       .  S
C69          C74   1.406       .  A
C69        C1374   1.418       .  A
C70         C175   1.477       .  S
C70          C71   1.402       .  A
C70        C1373   1.418   1_455  A
C71          C72   1.399       .  A
C71          H76   1.085       .  S
C72        C1377   1.455   1_455  A
C73          C74   1.400       .  A
C73        C1376   1.455       .  A
C74          H75   1.083       .  S
C77         C247   1.474       .  S
C77          C78   1.415       .  A
C77          C82   1.403       .  A
C78         C157   1.484       .  S
C78          C79   1.403       .  A
C79          C80   1.397       .  A
C79          H84   1.084       .  S
C80          C81   1.455       .  A
C81          C82   1.401       .  A
C82          H83   1.084       .  S
C85         C298   1.486       .  S
C85          C90   1.404       .  A
C85         C738   1.415   1_545  A
C86         C139   1.473       .  S
C86          C87   1.403       .  A
C86         C737   1.415       .  A
C87          C88   1.399       .  A
C87          H92   1.085       .  S
C88         C741   1.455       .  A
C89          C90   1.399       .  A
C89         C740   1.455   1_545  A
C90          H91   1.084       .  S
C93         C316   1.476       .  S
C93          C98   1.403       .  A
C93         C746   1.417   1_545  A
C94         C118   1.490       .  S
C94          C95   1.407       .  A
C94         C745   1.417       .  A
C95          C96   1.402       .  A
C95         H100   1.083       .  S
C96         C749   1.456       .  A
C97          C98   1.398       .  A
C97         C748   1.456   1_545  A
C98          H99   1.085       .  S
C101        H102   1.109       .  S
C101        C107   1.539       .  S
C101        C106   1.530       .  S
C101        C105   1.535       .  S
C103        H104   1.110       .  S
C103        C109   1.541       .  S
C103        C108   1.537       .  S
C103        C110   1.532       .  S
C105        C108   1.376       .  D
C105        C211   1.485       .  S
C106        C109   1.375       .  D
C106        C193   1.470       .  S
C107        C110   1.375       .  D
C107        C121   1.488       .  S
C108        C172   1.475       .  S
C109        C154   1.489       .  S
C110        C136   1.473       .  S
C111        C116   1.382       .  A
C111        C112   1.403       .  A
C111        N117   1.342       .  A
C112        C113   1.401       .  A
C112        H123   1.082       .  S
C113        C122   1.376       .  A
C113        C114   1.382       .  A
C114        C115   1.404       .  A
C114        N120   1.343       .  A
C115        C116   1.403       .  A
C115        H124   1.082       .  S
C116        C119   1.378       .  A
N117        C118   1.358       .  A
N117        H127   1.044       .  S
C118        C119   1.400       .  A
C119        H125   1.081       .  S
N120        C121   1.359       .  A
N120        H128   1.043       .  S
C121        C122   1.396       .  A
C122        H126   1.082       .  S
C129        C134   1.385       .  A
C129        C130   1.403       .  A
C129        N135   1.342       .  A
C130        C131   1.401       .  A
C130        H141   1.082       .  S
C131        C140   1.377       .  A
C131        C132   1.385       .  A
C132        C133   1.402       .  A
C132        N138   1.342       .  A
C133        C134   1.401       .  A
C133        H142   1.082       .  S
C134        C137   1.377       .  A
N135        C136   1.353       .  A
N135        H145   1.044       .  S
C136        C137   1.394       .  A
C137        H143   1.082       .  S
N138        C139   1.354       .  A
N138        H146   1.045       .  S
C139        C140   1.394       .  A
C140        H144   1.082       .  S
C147        C152   1.382       .  A
C147        C148   1.402       .  A
C147        N153   1.342       .  A
C148        C149   1.402       .  A
C148        H159   1.082       .  S
C149        C158   1.374       .  A
C149        C150   1.384       .  A
C150        C151   1.403       .  A
C150        N156   1.344       .  A
C151        C152   1.403       .  A
C151        H160   1.082       .  S
C152        C155   1.375       .  A
N153        C154   1.357       .  A
N153        H163   1.044       .  S
C154        C155   1.400       .  A
C155        H161   1.080       .  S
N156        C157   1.357       .  A
N156        H164   1.044       .  S
C157        C158   1.397       .  A
C158        H162   1.082       .  S
C165        C170   1.385       .  A
C165        C166   1.403       .  A
C165        N171   1.342       .  A
C166        C167   1.401       .  A
C166        H177   1.082       .  S
C167        C176   1.378       .  A
C167        C168   1.385       .  A
C168        C169   1.404       .  A
C168        N174   1.343       .  A
C169        C170   1.403       .  A
C169        H178   1.082       .  S
C170        C173   1.380       .  A
N171        C172   1.353       .  A
N171        H181   1.045       .  S
C172        C173   1.396       .  A
C173        H179   1.082       .  S
N174        C175   1.356       .  A
N174        H182   1.045       .  S
C175        C176   1.394       .  A
C176        H180   1.082       .  S
C183        C188   1.384       .  A
C183        C184   1.403       .  A
C183        N189   1.342       .  A
C184        C185   1.402       .  A
C184        H195   1.082       .  S
C185        C194   1.379       .  A
C185        C186   1.385       .  A
C186        C187   1.403       .  A
C186        N192   1.342       .  A
C187        C188   1.402       .  A
C187        H196   1.082       .  S
C188        C191   1.379       .  A
N189        C190   1.356       .  A
N189        H199   1.045       .  S
C190        C191   1.396       .  A
C191        H197   1.082       .  S
N192        C193   1.353       .  A
N192        H200   1.045       .  S
C193        C194   1.393       .  A
C194        H198   1.082       .  S
C201        C206   1.383       .  A
C201        C202   1.402       .  A
C201        N207   1.341       .  A
C202        C203   1.401       .  A
C202        H213   1.083       .  S
C203        C212   1.375       .  A
C203        C204   1.383       .  A
C204        C205   1.402       .  A
C204        N210   1.341       .  A
C205        C206   1.400       .  A
C205        H214   1.083       .  S
C206        C209   1.375       .  A
N207        C208   1.357       .  A
N207        H217   1.045       .  S
C208        C209   1.397       .  A
C209        H215   1.082       .  S
N210        C211   1.357       .  A
N210        H218   1.043       .  S
C211        C212   1.397       .  A
C212        H216   1.082       .  S
C219        C224   1.383       .  A
C219        C220   1.406       .  A
C219        N225   1.344       .  A
C220        C221   1.405       .  A
C220        H231   1.082       .  S
C221        C230   1.379       .  A
C221        C222   1.383       .  A
C222        C223   1.400       .  A
C222        N228   1.339       .  A
C223        C224   1.398       .  A
C223        H232   1.082       .  S
C224        C227   1.373       .  A
N225        C226   1.359       .  A
N225        H235   1.044       .  S
C226        C227   1.393       .  A
C227        H233   1.081       .  S
N228        C229   1.356       .  A
N228        H236   1.044       .  S
C229        C230   1.401       .  A
C230        H234   1.082       .  S
C237        C242   1.385       .  A
C237        C238   1.405       .  A
C237        N243   1.344       .  A
C238        C239   1.404       .  A
C238        H249   1.082       .  S
C239        C248   1.381       .  A
C239        C240   1.385       .  A
C240        C241   1.403       .  A
C240        N246   1.342       .  A
C241        C242   1.401       .  A
C241        H250   1.082       .  S
C242        C245   1.377       .  A
N243        C244   1.355       .  A
N243        H253   1.044       .  S
C244        C245   1.395       .  A
C245        H251   1.082       .  S
N246        C247   1.354       .  A
N246        H254   1.045       .  S
C247        C248   1.395       .  A
C248        H252   1.082       .  S
C255        C260   1.383       .  A
C255        C256   1.402       .  A
C255        N261   1.343       .  A
C256        C257   1.402       .  A
C256        H267   1.083       .  S
C257        C266   1.373       .  A
C257        C258   1.381       .  A
C258        C259   1.403       .  A
C258        N264   1.344       .  A
C259        C260   1.403       .  A
C259        H268   1.082       .  S
C260        C263   1.376       .  A
N261        C262   1.357       .  A
N261        H271   1.044       .  S
C262        C263   1.399       .  A
C263        H269   1.082       .  S
N264        C265   1.358       .  A
N264        H272   1.044       .  S
C265        C266   1.400       .  A
C266        H270   1.080       .  S
C273        C278   1.385       .  A
C273        C274   1.403       .  A
C273        N279   1.342       .  A
C274        C275   1.402       .  A
C274        H285   1.082       .  S
C275        C284   1.378       .  A
C275        C276   1.385       .  A
C276        C277   1.403       .  A
C276        N282   1.342       .  A
C277        C278   1.402       .  A
C277        H286   1.082       .  S
C278        C281   1.378       .  A
N279        C280   1.353       .  A
N279        H289   1.044       .  S
C280        C281   1.394       .  A
C281        H287   1.082       .  S
N282        C283   1.355       .  A
N282        H290   1.045       .  S
C283        C284   1.395       .  A
C284        H288   1.082       .  S
C291        C296   1.383       .  A
C291        C292   1.405       .  A
C291        N297   1.344       .  A
C292        C293   1.405       .  A
C292        H303   1.083       .  S
C293        C302   1.377       .  A
C293        C294   1.382       .  A
C294        C295   1.400       .  A
C294        N300   1.341       .  A
C295        C296   1.400       .  A
C295        H304   1.082       .  S
C296        C299   1.373       .  A
N297        C298   1.359       .  A
N297        H307   1.044       .  S
C298        C299   1.396       .  A
C299        H305   1.082       .  S
N300        C301   1.356       .  A
N300        H308   1.043       .  S
C301        C302   1.402       .  A
C302        H306   1.080       .  S
C309        C314   1.385       .  A
C309        C310   1.404       .  A
C309        N315   1.345       .  A
C310        C311   1.404       .  A
C310        H321   1.082       .  S
C311        C320   1.378       .  A
C311        C312   1.386       .  A
C312        C313   1.401       .  A
C312        N318   1.343       .  A
C313        C314   1.401       .  A
C313        H322   1.082       .  S
C314        C317   1.374       .  A
N315        C316   1.356       .  A
N315        H325   1.045       .  S
C316        C317   1.393       .  A
C317        H323   1.082       .  S
N318        C319   1.353       .  A
N318        H326   1.045       .  S
C319        C320   1.393       .  A
C320        H324   1.082       .  S
C327        H328   1.106       .  S
C327        C333   1.544       .  S
C327        C332   1.534       .  S
C327        C331   1.542       .  S
C329        H330   1.111       .  S
C329        C335   1.538       .  S
C329        C334   1.531       .  S
C329        C336   1.528       .  S
C331        C334   1.376       .  D
C331        C627   1.491       .  S
C332        C335   1.374       .  D
C332        C570   1.479       .  S
C333        C336   1.377       .  D
C333        C591   1.492       .  S
C334        C645   1.472       .  S
C335        C552   1.483       .  S
C336        C606   1.473       .  S
O337        C347   1.278       .  A
O338        C348   1.278       .  A
O338        V345   1.945       .  S
O339        C349   1.281       .  A
O340        C350   1.280       .  A
O340        V345   1.960       .  S
O341        C350   1.233       .  A
O342        C349   1.234       .  A
O342        V346   1.836       .  S
O343        C348   1.260       .  A
O344        C347   1.259       .  A
O344        V346   1.897       .  S
C347        C423   1.512       .  S
C348        C398   1.510       .  S
C349        C383   1.500       .  S
C350        C415   1.497       .  S
O351        C361   1.233       .  A
O351       V1011   1.835       .  S
O352        C362   1.234       .  A
O353        C363   1.259       .  A
O353        V359   1.895       .  S
O354        C364   1.258       .  A
O354        V685   1.894       .  S
O355        C364   1.278       .  A
O355       V1012   1.945       .  S
O356        C363   1.277       .  A
O357        C362   1.282       .  A
O357        V360   1.962       .  S
O358        C361   1.280       .  A
O358        V686   1.958       .  S
V359       O1003   1.835   1_545  S
V359        O680   1.894   1_545  S
V360       O1007   1.945   1_545  S
V360        O684   1.958   1_546  S
C361        C391   1.495       .  S
C362        C399   1.500       .  S
C363        C382   1.505       .  S
C364        C406   1.509       .  S
O365        C375   1.279       .  A
O365       V1351   1.949   1_456  S
O366        C376   1.279       .  A
O366        V373   1.951       .  S
O367        C377   1.281       .  A
O368        C378   1.281       .  A
O368       V1677   1.963   1_455  S
O369        C378   1.234       .  A
O369        V374   1.838   1_455  S
O370        C377   1.234       .  A
O370       V1352   1.837       .  S
O371        C376   1.260       .  A
O371       V1678   1.899       .  S
O372        C375   1.259       .  A
V373       O1343   1.949       .  S
V373       O1672   1.963       .  S
V373       V1678   2.018       .  T
V374       O1348   1.837       .  S
V374       O1675   1.899       .  S
V374       V1677   2.018       .  T
C375        C414   1.513       .  S
C376        C390   1.516       .  S
C377        C407   1.502       .  S
C378        C422   1.503       .  S
C379        C534   1.484       .  S
C379       C1684   1.418   1_455  A
C379        C384   1.405       .  A
C380        C609   1.477       .  S
C380       C1683   1.418       .  A
C380        C381   1.400       .  A
C381        C382   1.398       .  A
C381        H386   1.085       .  S
C382       C1687   1.454       .  A
C383       C1686   1.454   1_455  A
C383        C384   1.399       .  A
C384        H385   1.083       .  S
C387        C516   1.479       .  S
C387        C388   1.420       .  A
C387        C392   1.400       .  A
C388        C555   1.489       .  S
C388        C389   1.409       .  A
C389        C390   1.400       .  A
C389        H394   1.084       .  S
C390        C391   1.453       .  A
C391        C392   1.398       .  A
C392        H393   1.085       .  S
C395        C588   1.488       .  S
C395       C1700   1.418       .  A
C395        C400   1.406       .  A
C396        C501   1.477       .  S
C396       C1699   1.418   1_455  A
C396        C397   1.402       .  A
C397        C398   1.399       .  A
C397        H402   1.085       .  S
C398       C1703   1.455   1_455  A
C399       C1702   1.455       .  A
C399        C400   1.400       .  A
C400        H401   1.083       .  S
C403        C573   1.474       .  S
C403        C404   1.415       .  A
C403        C408   1.403       .  A
C404        C483   1.484       .  S
C404        C405   1.403       .  A
C405        C406   1.397       .  A
C405        H410   1.084       .  S
C406        C407   1.455       .  A
C407        C408   1.401       .  A
C408        H409   1.084       .  S
C411        C624   1.486       .  S
C411       C1064   1.415   1_545  A
C411        C416   1.404       .  A
C412        C465   1.473       .  S
C412       C1063   1.415       .  A
C412        C413   1.403       .  A
C413        C414   1.399       .  A
C413        H418   1.085       .  S
C414       C1067   1.455       .  A
C415       C1066   1.455   1_545  A
C415        C416   1.399       .  A
C416        H417   1.084       .  S
C419        C642   1.476       .  S
C419       C1072   1.417   1_545  A
C419        C424   1.403       .  A
C420        C444   1.490       .  S
C420       C1071   1.417       .  A
C420        C421   1.407       .  A
C421        C422   1.402       .  A
C421        H426   1.083       .  S
C422       C1075   1.456       .  A
C423       C1074   1.456   1_545  A
C423        C424   1.398       .  A
C424        H425   1.085       .  S
C427        H428   1.109       .  S
C427        C433   1.539       .  S
C427        C432   1.530       .  S
C427        C431   1.535       .  S
C429        H430   1.110       .  S
C429        C435   1.541       .  S
C429        C434   1.537       .  S
C429        C436   1.532       .  S
C431        C434   1.376       .  D
C431        C537   1.485       .  S
C432        C435   1.375       .  D
C432        C519   1.470       .  S
C433        C436   1.375       .  D
C433        C447   1.488       .  S
C434        C498   1.475       .  S
C435        C480   1.489       .  S
C436        C462   1.473       .  S
C437        C442   1.382       .  A
C437        C438   1.403       .  A
C437        N443   1.342       .  A
C438        C439   1.401       .  A
C438        H449   1.082       .  S
C439        C448   1.376       .  A
C439        C440   1.382       .  A
C440        C441   1.404       .  A
C440        N446   1.343       .  A
C441        C442   1.403       .  A
C441        H450   1.082       .  S
C442        C445   1.378       .  A
N443        C444   1.358       .  A
N443        H453   1.044       .  S
C444        C445   1.400       .  A
C445        H451   1.081       .  S
N446        C447   1.359       .  A
N446        H454   1.043       .  S
C447        C448   1.396       .  A
C448        H452   1.082       .  S
C455        C460   1.385       .  A
C455        C456   1.403       .  A
C455        N461   1.342       .  A
C456        C457   1.401       .  A
C456        H467   1.082       .  S
C457        C466   1.377       .  A
C457        C458   1.385       .  A
C458        C459   1.402       .  A
C458        N464   1.342       .  A
C459        C460   1.401       .  A
C459        H468   1.082       .  S
C460        C463   1.377       .  A
N461        C462   1.353       .  A
N461        H471   1.044       .  S
C462        C463   1.394       .  A
C463        H469   1.082       .  S
N464        C465   1.354       .  A
N464        H472   1.045       .  S
C465        C466   1.394       .  A
C466        H470   1.082       .  S
C473        C478   1.382       .  A
C473        C474   1.402       .  A
C473        N479   1.342       .  A
C474        C475   1.402       .  A
C474        H485   1.082       .  S
C475        C484   1.374       .  A
C475        C476   1.384       .  A
C476        C477   1.403       .  A
C476        N482   1.344       .  A
C477        C478   1.403       .  A
C477        H486   1.082       .  S
C478        C481   1.375       .  A
N479        C480   1.357       .  A
N479        H489   1.044       .  S
C480        C481   1.400       .  A
C481        H487   1.080       .  S
N482        C483   1.357       .  A
N482        H490   1.044       .  S
C483        C484   1.397       .  A
C484        H488   1.082       .  S
C491        C496   1.385       .  A
C491        C492   1.403       .  A
C491        N497   1.342       .  A
C492        C493   1.401       .  A
C492        H503   1.082       .  S
C493        C502   1.378       .  A
C493        C494   1.385       .  A
C494        C495   1.404       .  A
C494        N500   1.343       .  A
C495        C496   1.403       .  A
C495        H504   1.082       .  S
C496        C499   1.380       .  A
N497        C498   1.353       .  A
N497        H507   1.045       .  S
C498        C499   1.396       .  A
C499        H505   1.082       .  S
N500        C501   1.356       .  A
N500        H508   1.045       .  S
C501        C502   1.394       .  A
C502        H506   1.082       .  S
C509        C514   1.384       .  A
C509        C510   1.403       .  A
C509        N515   1.342       .  A
C510        C511   1.402       .  A
C510        H521   1.082       .  S
C511        C520   1.379       .  A
C511        C512   1.385       .  A
C512        C513   1.403       .  A
C512        N518   1.342       .  A
C513        C514   1.402       .  A
C513        H522   1.082       .  S
C514        C517   1.379       .  A
N515        C516   1.356       .  A
N515        H525   1.045       .  S
C516        C517   1.396       .  A
C517        H523   1.082       .  S
N518        C519   1.353       .  A
N518        H526   1.045       .  S
C519        C520   1.393       .  A
C520        H524   1.082       .  S
C527        C532   1.383       .  A
C527        C528   1.402       .  A
C527        N533   1.341       .  A
C528        C529   1.401       .  A
C528        H539   1.083       .  S
C529        C538   1.375       .  A
C529        C530   1.383       .  A
C530        C531   1.402       .  A
C530        N536   1.341       .  A
C531        C532   1.400       .  A
C531        H540   1.083       .  S
C532        C535   1.375       .  A
N533        C534   1.357       .  A
N533        H543   1.045       .  S
C534        C535   1.397       .  A
C535        H541   1.082       .  S
N536        C537   1.357       .  A
N536        H544   1.043       .  S
C537        C538   1.397       .  A
C538        H542   1.082       .  S
C545        C550   1.383       .  A
C545        C546   1.406       .  A
C545        N551   1.344       .  A
C546        C547   1.405       .  A
C546        H557   1.082       .  S
C547        C556   1.379       .  A
C547        C548   1.383       .  A
C548        C549   1.400       .  A
C548        N554   1.339       .  A
C549        C550   1.398       .  A
C549        H558   1.082       .  S
C550        C553   1.373       .  A
N551        C552   1.359       .  A
N551        H561   1.044       .  S
C552        C553   1.393       .  A
C553        H559   1.081       .  S
N554        C555   1.356       .  A
N554        H562   1.044       .  S
C555        C556   1.401       .  A
C556        H560   1.082       .  S
C563        C568   1.385       .  A
C563        C564   1.405       .  A
C563        N569   1.344       .  A
C564        C565   1.404       .  A
C564        H575   1.082       .  S
C565        C574   1.381       .  A
C565        C566   1.385       .  A
C566        C567   1.403       .  A
C566        N572   1.342       .  A
C567        C568   1.401       .  A
C567        H576   1.082       .  S
C568        C571   1.377       .  A
N569        C570   1.355       .  A
N569        H579   1.044       .  S
C570        C571   1.395       .  A
C571        H577   1.082       .  S
N572        C573   1.354       .  A
N572        H580   1.045       .  S
C573        C574   1.395       .  A
C574        H578   1.082       .  S
C581        C586   1.383       .  A
C581        C582   1.402       .  A
C581        N587   1.343       .  A
C582        C583   1.402       .  A
C582        H593   1.083       .  S
C583        C592   1.373       .  A
C583        C584   1.381       .  A
C584        C585   1.403       .  A
C584        N590   1.344       .  A
C585        C586   1.403       .  A
C585        H594   1.082       .  S
C586        C589   1.376       .  A
N587        C588   1.357       .  A
N587        H597   1.044       .  S
C588        C589   1.399       .  A
C589        H595   1.082       .  S
N590        C591   1.358       .  A
N590        H598   1.044       .  S
C591        C592   1.400       .  A
C592        H596   1.080       .  S
C599        C604   1.385       .  A
C599        C600   1.403       .  A
C599        N605   1.342       .  A
C600        C601   1.402       .  A
C600        H611   1.082       .  S
C601        C610   1.378       .  A
C601        C602   1.385       .  A
C602        C603   1.403       .  A
C602        N608   1.342       .  A
C603        C604   1.402       .  A
C603        H612   1.082       .  S
C604        C607   1.378       .  A
N605        C606   1.353       .  A
N605        H615   1.044       .  S
C606        C607   1.394       .  A
C607        H613   1.082       .  S
N608        C609   1.355       .  A
N608        H616   1.045       .  S
C609        C610   1.395       .  A
C610        H614   1.082       .  S
C617        C622   1.383       .  A
C617        C618   1.405       .  A
C617        N623   1.344       .  A
C618        C619   1.405       .  A
C618        H629   1.083       .  S
C619        C628   1.377       .  A
C619        C620   1.382       .  A
C620        C621   1.400       .  A
C620        N626   1.341       .  A
C621        C622   1.400       .  A
C621        H630   1.082       .  S
C622        C625   1.373       .  A
N623        C624   1.359       .  A
N623        H633   1.044       .  S
C624        C625   1.396       .  A
C625        H631   1.082       .  S
N626        C627   1.356       .  A
N626        H634   1.043       .  S
C627        C628   1.402       .  A
C628        H632   1.080       .  S
C635        C640   1.385       .  A
C635        C636   1.404       .  A
C635        N641   1.345       .  A
C636        C637   1.404       .  A
C636        H647   1.082       .  S
C637        C646   1.378       .  A
C637        C638   1.386       .  A
C638        C639   1.401       .  A
C638        N644   1.343       .  A
C639        C640   1.401       .  A
C639        H648   1.082       .  S
C640        C643   1.374       .  A
N641        C642   1.356       .  A
N641        H651   1.045       .  S
C642        C643   1.393       .  A
C643        H649   1.082       .  S
N644        C645   1.353       .  A
N644        H652   1.045       .  S
C645        C646   1.393       .  A
C646        H650   1.082       .  S
C653        H654   1.106       .  S
C653        C659   1.544       .  S
C653        C658   1.534       .  S
C653        C657   1.542       .  S
C655        H656   1.111       .  S
C655        C661   1.538       .  S
C655        C660   1.531       .  S
C655        C662   1.528       .  S
C657        C660   1.376       .  D
C657        C953   1.491       .  S
C658        C661   1.374       .  D
C658        C896   1.479       .  S
C659        C662   1.377       .  D
C659        C917   1.492       .  S
C660        C971   1.472       .  S
C661        C878   1.483       .  S
C662        C932   1.473       .  S
O663        C673   1.278       .  A
O663        V997   1.948   1_554  S
O664        C674   1.278       .  A
O664        V671   1.945       .  S
O665        C675   1.281       .  A
O665        V997   1.962   1_554  S
O666        C676   1.280       .  A
O666        V671   1.960       .  S
O667        C676   1.233       .  A
O667        V998   1.836       .  S
O668        C675   1.234       .  A
O668        V672   1.836   1_554  S
O669        C674   1.260       .  A
O669        V998   1.898       .  S
O670        C673   1.259       .  A
O670        V672   1.897   1_554  S
V671        O989   1.948       .  S
V671        O991   1.962       .  S
V671        V998   2.017       .  T
V672        O993   1.836       .  S
V672        O995   1.898       .  S
V672        V997   2.017       .  T
C673        C749   1.512       .  S
C674        C724   1.510       .  S
C675        C709   1.500       .  S
C676        C741   1.497       .  S
O677        C687   1.233       .  A
O678        C688   1.234       .  A
O678       V1011   1.836       .  S
O679        C689   1.259       .  A
O679        V685   1.895   1_554  S
O680        C690   1.258       .  A
O681        C690   1.278       .  A
O682        C689   1.277       .  A
O682       V1012   1.941   1_554  S
O683        C688   1.282       .  A
O683        V686   1.962       .  S
O684        C687   1.280       .  A
V685       O1004   1.836       .  S
V685       V1012   2.017       .  T
V686       O1008   1.941       .  S
V686       V1011   2.017       .  T
C687        C717   1.495       .  S
C688        C725   1.500       .  S
C689        C708   1.505       .  S
C690        C732   1.509       .  S
O691        C701   1.279       .  A
O691       V2329   1.949   1_455  S
O692        C702   1.279       .  A
O692        V699   1.951       .  S
O693        C703   1.281       .  A
O693       V1025   1.963       .  S
O694        C704   1.281       .  A
O694       V2003   1.963   1_455  S
O695        C704   1.234       .  A
O695        V700   1.838   1_454  S
O696        C703   1.234       .  A
O696       V2330   1.837       .  S
O697        C702   1.260       .  A
O697       V2004   1.899   1_554  S
O698        C701   1.259       .  A
O698       V1026   1.897   1_455  S
V699       O2321   1.949   1_554  S
V699       O1019   1.963   1_554  S
V699       O1998   1.963       .  S
V699       V2004   2.018   1_554  T
V700       O2326   1.837       .  S
V700       O2001   1.899   1_556  S
V700       O1024   1.897   1_655  S
V700       V2003   2.018   1_556  T
C701        C740   1.513       .  S
C702        C716   1.516       .  S
C703        C733   1.502       .  S
C704        C748   1.503       .  S
C705        C860   1.484       .  S
C705       C2010   1.418   1_455  A
C705        C710   1.405       .  A
C706        C935   1.477       .  S
C706       C2009   1.418       .  A
C706        C707   1.400       .  A
C707        C708   1.398       .  A
C707        H712   1.085       .  S
C708       C2013   1.454       .  A
C709       C2012   1.454   1_455  A
C709        C710   1.399       .  A
C710        H711   1.083       .  S
C713        C842   1.479       .  S
C713        C714   1.420       .  A
C713        C718   1.400       .  A
C714        C881   1.489       .  S
C714        C715   1.409       .  A
C715        C716   1.400       .  A
C715        H720   1.084       .  S
C716        C717   1.453       .  A
C717        C718   1.398       .  A
C718        H719   1.085       .  S
C721        C914   1.488       .  S
C721       C2026   1.418       .  A
C721        C726   1.406       .  A
C722        C827   1.477       .  S
C722       C2025   1.418   1_455  A
C722        C723   1.402       .  A
C723        C724   1.399       .  A
C723        H728   1.085       .  S
C724       C2029   1.455   1_455  A
C725       C2028   1.455       .  A
C725        C726   1.400       .  A
C726        H727   1.083       .  S
C729        C899   1.474       .  S
C729        C730   1.415       .  A
C729        C734   1.403       .  A
C730        C809   1.484       .  S
C730        C731   1.403       .  A
C731        C732   1.397       .  A
C731        H736   1.084       .  S
C732        C733   1.455       .  A
C733        C734   1.401       .  A
C734        H735   1.084       .  S
C737        C950   1.486       .  S
C737        C742   1.404       .  A
C738        C791   1.473       .  S
C738        C739   1.403       .  A
C739        C740   1.399       .  A
C739        H744   1.085       .  S
C741        C742   1.399       .  A
C742        H743   1.084       .  S
C745        C968   1.476       .  S
C745        C750   1.403       .  A
C746        C770   1.490       .  S
C746        C747   1.407       .  A
C747        C748   1.402       .  A
C747        H752   1.083       .  S
C749        C750   1.398       .  A
C750        H751   1.085       .  S
C753        H754   1.109       .  S
C753        C759   1.539       .  S
C753        C758   1.530       .  S
C753        C757   1.535       .  S
C755        H756   1.110       .  S
C755        C761   1.541       .  S
C755        C760   1.537       .  S
C755        C762   1.532       .  S
C757        C760   1.376       .  D
C757        C863   1.485       .  S
C758        C761   1.375       .  D
C758        C845   1.470       .  S
C759        C762   1.375       .  D
C759        C773   1.488       .  S
C760        C824   1.475       .  S
C761        C806   1.489       .  S
C762        C788   1.473       .  S
C763        C768   1.382       .  A
C763        C764   1.403       .  A
C763        N769   1.342       .  A
C764        C765   1.401       .  A
C764        H775   1.082       .  S
C765        C774   1.376       .  A
C765        C766   1.382       .  A
C766        C767   1.404       .  A
C766        N772   1.343       .  A
C767        C768   1.403       .  A
C767        H776   1.082       .  S
C768        C771   1.378       .  A
N769        C770   1.358       .  A
N769        H779   1.044       .  S
C770        C771   1.400       .  A
C771        H777   1.081       .  S
N772        C773   1.359       .  A
N772        H780   1.043       .  S
C773        C774   1.396       .  A
C774        H778   1.082       .  S
C781        C786   1.385       .  A
C781        C782   1.403       .  A
C781        N787   1.342       .  A
C782        C783   1.401       .  A
C782        H793   1.082       .  S
C783        C792   1.377       .  A
C783        C784   1.385       .  A
C784        C785   1.402       .  A
C784        N790   1.342       .  A
C785        C786   1.401       .  A
C785        H794   1.082       .  S
C786        C789   1.377       .  A
N787        C788   1.353       .  A
N787        H797   1.044       .  S
C788        C789   1.394       .  A
C789        H795   1.082       .  S
N790        C791   1.354       .  A
N790        H798   1.045       .  S
C791        C792   1.394       .  A
C792        H796   1.082       .  S
C799        C804   1.382       .  A
C799        C800   1.402       .  A
C799        N805   1.342       .  A
C800        C801   1.402       .  A
C800        H811   1.082       .  S
C801        C810   1.374       .  A
C801        C802   1.384       .  A
C802        C803   1.403       .  A
C802        N808   1.344       .  A
C803        C804   1.403       .  A
C803        H812   1.082       .  S
C804        C807   1.375       .  A
N805        C806   1.357       .  A
N805        H815   1.044       .  S
C806        C807   1.400       .  A
C807        H813   1.080       .  S
N808        C809   1.357       .  A
N808        H816   1.044       .  S
C809        C810   1.397       .  A
C810        H814   1.082       .  S
C817        C822   1.385       .  A
C817        C818   1.403       .  A
C817        N823   1.342       .  A
C818        C819   1.401       .  A
C818        H829   1.082       .  S
C819        C828   1.378       .  A
C819        C820   1.385       .  A
C820        C821   1.404       .  A
C820        N826   1.343       .  A
C821        C822   1.403       .  A
C821        H830   1.082       .  S
C822        C825   1.380       .  A
N823        C824   1.353       .  A
N823        H833   1.045       .  S
C824        C825   1.396       .  A
C825        H831   1.082       .  S
N826        C827   1.356       .  A
N826        H834   1.045       .  S
C827        C828   1.394       .  A
C828        H832   1.082       .  S
C835        C840   1.384       .  A
C835        C836   1.403       .  A
C835        N841   1.342       .  A
C836        C837   1.402       .  A
C836        H847   1.082       .  S
C837        C846   1.379       .  A
C837        C838   1.385       .  A
C838        C839   1.403       .  A
C838        N844   1.342       .  A
C839        C840   1.402       .  A
C839        H848   1.082       .  S
C840        C843   1.379       .  A
N841        C842   1.356       .  A
N841        H851   1.045       .  S
C842        C843   1.396       .  A
C843        H849   1.082       .  S
N844        C845   1.353       .  A
N844        H852   1.045       .  S
C845        C846   1.393       .  A
C846        H850   1.082       .  S
C853        C858   1.383       .  A
C853        C854   1.402       .  A
C853        N859   1.341       .  A
C854        C855   1.401       .  A
C854        H865   1.083       .  S
C855        C864   1.375       .  A
C855        C856   1.383       .  A
C856        C857   1.402       .  A
C856        N862   1.341       .  A
C857        C858   1.400       .  A
C857        H866   1.083       .  S
C858        C861   1.375       .  A
N859        C860   1.357       .  A
N859        H869   1.045       .  S
C860        C861   1.397       .  A
C861        H867   1.082       .  S
N862        C863   1.357       .  A
N862        H870   1.043       .  S
C863        C864   1.397       .  A
C864        H868   1.082       .  S
C871        C876   1.383       .  A
C871        C872   1.406       .  A
C871        N877   1.344       .  A
C872        C873   1.405       .  A
C872        H883   1.082       .  S
C873        C882   1.379       .  A
C873        C874   1.383       .  A
C874        C875   1.400       .  A
C874        N880   1.339       .  A
C875        C876   1.398       .  A
C875        H884   1.082       .  S
C876        C879   1.373       .  A
N877        C878   1.359       .  A
N877        H887   1.044       .  S
C878        C879   1.393       .  A
C879        H885   1.081       .  S
N880        C881   1.356       .  A
N880        H888   1.044       .  S
C881        C882   1.401       .  A
C882        H886   1.082       .  S
C889        C894   1.385       .  A
C889        C890   1.405       .  A
C889        N895   1.344       .  A
C890        C891   1.404       .  A
C890        H901   1.082       .  S
C891        C900   1.381       .  A
C891        C892   1.385       .  A
C892        C893   1.403       .  A
C892        N898   1.342       .  A
C893        C894   1.401       .  A
C893        H902   1.082       .  S
C894        C897   1.377       .  A
N895        C896   1.355       .  A
N895        H905   1.044       .  S
C896        C897   1.395       .  A
C897        H903   1.082       .  S
N898        C899   1.354       .  A
N898        H906   1.045       .  S
C899        C900   1.395       .  A
C900        H904   1.082       .  S
C907        C912   1.383       .  A
C907        C908   1.402       .  A
C907        N913   1.343       .  A
C908        C909   1.402       .  A
C908        H919   1.083       .  S
C909        C918   1.373       .  A
C909        C910   1.381       .  A
C910        C911   1.403       .  A
C910        N916   1.344       .  A
C911        C912   1.403       .  A
C911        H920   1.082       .  S
C912        C915   1.376       .  A
N913        C914   1.357       .  A
N913        H923   1.044       .  S
C914        C915   1.399       .  A
C915        H921   1.082       .  S
N916        C917   1.358       .  A
N916        H924   1.044       .  S
C917        C918   1.400       .  A
C918        H922   1.080       .  S
C925        C930   1.385       .  A
C925        C926   1.403       .  A
C925        N931   1.342       .  A
C926        C927   1.402       .  A
C926        H937   1.082       .  S
C927        C936   1.378       .  A
C927        C928   1.385       .  A
C928        C929   1.403       .  A
C928        N934   1.342       .  A
C929        C930   1.402       .  A
C929        H938   1.082       .  S
C930        C933   1.378       .  A
N931        C932   1.353       .  A
N931        H941   1.044       .  S
C932        C933   1.394       .  A
C933        H939   1.082       .  S
N934        C935   1.355       .  A
N934        H942   1.045       .  S
C935        C936   1.395       .  A
C936        H940   1.082       .  S
C943        C948   1.383       .  A
C943        C944   1.405       .  A
C943        N949   1.344       .  A
C944        C945   1.405       .  A
C944        H955   1.083       .  S
C945        C954   1.377       .  A
C945        C946   1.382       .  A
C946        C947   1.400       .  A
C946        N952   1.341       .  A
C947        C948   1.400       .  A
C947        H956   1.082       .  S
C948        C951   1.373       .  A
N949        C950   1.359       .  A
N949        H959   1.044       .  S
C950        C951   1.396       .  A
C951        H957   1.082       .  S
N952        C953   1.356       .  A
N952        H960   1.043       .  S
C953        C954   1.402       .  A
C954        H958   1.080       .  S
C961        C966   1.385       .  A
C961        C962   1.404       .  A
C961        N967   1.345       .  A
C962        C963   1.404       .  A
C962        H973   1.082       .  S
C963        C972   1.378       .  A
C963        C964   1.386       .  A
C964        C965   1.401       .  A
C964        N970   1.343       .  A
C965        C966   1.401       .  A
C965        H974   1.082       .  S
C966        C969   1.374       .  A
N967        C968   1.356       .  A
N967        H977   1.045       .  S
C968        C969   1.393       .  A
C969        H975   1.082       .  S
N970        C971   1.353       .  A
N970        H978   1.045       .  S
C971        C972   1.393       .  A
C972        H976   1.082       .  S
C979        H980   1.106       .  S
C979        C985   1.544       .  S
C979        C984   1.534       .  S
C979        C983   1.542       .  S
C981        H982   1.111       .  S
C981        C987   1.538       .  S
C981        C986   1.531       .  S
C981        C988   1.528       .  S
C983        C986   1.376       .  D
C983       C1279   1.491       .  S
C984        C987   1.374       .  D
C984       C1222   1.479       .  S
C985        C988   1.377       .  D
C985       C1243   1.492       .  S
C986       C1297   1.472       .  S
C987       C1204   1.483       .  S
C988       C1258   1.473       .  S
O989        C999   1.278       .  A
O990       C1000   1.278       .  A
O990        V997   1.945       .  S
O991       C1001   1.281       .  A
O992       C1002   1.280       .  A
O992        V997   1.960       .  S
O993       C1002   1.233       .  A
O994       C1001   1.234       .  A
O994        V998   1.836       .  S
O995       C1000   1.260       .  A
O996        C999   1.259       .  A
O996        V998   1.897       .  S
C999       C1075   1.512       .  S
C1000      C1050   1.510       .  S
C1001      C1035   1.500       .  S
C1002      C1067   1.497       .  S
O1003      C1013   1.233       .  A
O1004      C1014   1.234       .  A
O1005      C1015   1.259       .  A
O1005      V1011   1.895       .  S
O1006      C1016   1.258       .  A
O1007      C1016   1.278       .  A
O1008      C1015   1.277       .  A
O1009      C1014   1.282       .  A
O1009      V1012   1.962       .  S
O1010      C1013   1.280       .  A
C1013      C1043   1.495       .  S
C1014      C1051   1.500       .  S
C1015      C1034   1.505       .  S
C1016      C1058   1.509       .  S
O1017      C1027   1.279       .  A
O1017      V2003   1.949   1_456  S
O1018      C1028   1.279       .  A
O1018      V1025   1.951       .  S
O1019      C1029   1.281       .  A
O1020      C1030   1.281       .  A
O1020      V2329   1.963   1_455  S
O1021      C1030   1.234       .  A
O1021      V1026   1.838   1_455  S
O1022      C1029   1.234       .  A
O1022      V2004   1.837       .  S
O1023      C1028   1.260       .  A
O1023      V2330   1.899       .  S
O1024      C1027   1.259       .  A
V1025      O1995   1.949       .  S
V1025      O2324   1.963       .  S
V1025      V2330   2.018       .  T
V1026      O2000   1.837       .  S
V1026      O2327   1.899       .  S
V1026      V2329   2.018       .  T
C1027      C1066   1.513       .  S
C1028      C1042   1.516       .  S
C1029      C1059   1.502       .  S
C1030      C1074   1.503       .  S
C1031      C1186   1.484       .  S
C1031      C2336   1.418   1_455  A
C1031      C1036   1.405       .  A
C1032      C1261   1.477       .  S
C1032      C2335   1.418       .  A
C1032      C1033   1.400       .  A
C1033      C1034   1.398       .  A
C1033      H1038   1.085       .  S
C1034      C2339   1.454       .  A
C1035      C2338   1.454   1_455  A
C1035      C1036   1.399       .  A
C1036      H1037   1.083       .  S
C1039      C1168   1.479       .  S
C1039      C1040   1.420       .  A
C1039      C1044   1.400       .  A
C1040      C1207   1.489       .  S
C1040      C1041   1.409       .  A
C1041      C1042   1.400       .  A
C1041      H1046   1.084       .  S
C1042      C1043   1.453       .  A
C1043      C1044   1.398       .  A
C1044      H1045   1.085       .  S
C1047      C1240   1.488       .  S
C1047      C2352   1.418       .  A
C1047      C1052   1.406       .  A
C1048      C1153   1.477       .  S
C1048      C2351   1.418   1_455  A
C1048      C1049   1.402       .  A
C1049      C1050   1.399       .  A
C1049      H1054   1.085       .  S
C1050      C2355   1.455   1_455  A
C1051      C2354   1.455       .  A
C1051      C1052   1.400       .  A
C1052      H1053   1.083       .  S
C1055      C1225   1.474       .  S
C1055      C1056   1.415       .  A
C1055      C1060   1.403       .  A
C1056      C1135   1.484       .  S
C1056      C1057   1.403       .  A
C1057      C1058   1.397       .  A
C1057      H1062   1.084       .  S
C1058      C1059   1.455       .  A
C1059      C1060   1.401       .  A
C1060      H1061   1.084       .  S
C1063      C1276   1.486       .  S
C1063      C1068   1.404       .  A
C1064      C1117   1.473       .  S
C1064      C1065   1.403       .  A
C1065      C1066   1.399       .  A
C1065      H1070   1.085       .  S
C1067      C1068   1.399       .  A
C1068      H1069   1.084       .  S
C1071      C1294   1.476       .  S
C1071      C1076   1.403       .  A
C1072      C1096   1.490       .  S
C1072      C1073   1.407       .  A
C1073      C1074   1.402       .  A
C1073      H1078   1.083       .  S
C1075      C1076   1.398       .  A
C1076      H1077   1.085       .  S
C1079      H1080   1.109       .  S
C1079      C1085   1.539       .  S
C1079      C1084   1.530       .  S
C1079      C1083   1.535       .  S
C1081      H1082   1.110       .  S
C1081      C1087   1.541       .  S
C1081      C1086   1.537       .  S
C1081      C1088   1.532       .  S
C1083      C1086   1.376       .  D
C1083      C1189   1.485       .  S
C1084      C1087   1.375       .  D
C1084      C1171   1.470       .  S
C1085      C1088   1.375       .  D
C1085      C1099   1.488       .  S
C1086      C1150   1.475       .  S
C1087      C1132   1.489       .  S
C1088      C1114   1.473       .  S
C1089      C1094   1.382       .  A
C1089      C1090   1.403       .  A
C1089      N1095   1.342       .  A
C1090      C1091   1.401       .  A
C1090      H1101   1.082       .  S
C1091      C1100   1.376       .  A
C1091      C1092   1.382       .  A
C1092      C1093   1.404       .  A
C1092      N1098   1.343       .  A
C1093      C1094   1.403       .  A
C1093      H1102   1.082       .  S
C1094      C1097   1.378       .  A
N1095      C1096   1.358       .  A
N1095      H1105   1.044       .  S
C1096      C1097   1.400       .  A
C1097      H1103   1.081       .  S
N1098      C1099   1.359       .  A
N1098      H1106   1.043       .  S
C1099      C1100   1.396       .  A
C1100      H1104   1.082       .  S
C1107      C1112   1.385       .  A
C1107      C1108   1.403       .  A
C1107      N1113   1.342       .  A
C1108      C1109   1.401       .  A
C1108      H1119   1.082       .  S
C1109      C1118   1.377       .  A
C1109      C1110   1.385       .  A
C1110      C1111   1.402       .  A
C1110      N1116   1.342       .  A
C1111      C1112   1.401       .  A
C1111      H1120   1.082       .  S
C1112      C1115   1.377       .  A
N1113      C1114   1.353       .  A
N1113      H1123   1.044       .  S
C1114      C1115   1.394       .  A
C1115      H1121   1.082       .  S
N1116      C1117   1.354       .  A
N1116      H1124   1.045       .  S
C1117      C1118   1.394       .  A
C1118      H1122   1.082       .  S
C1125      C1130   1.382       .  A
C1125      C1126   1.402       .  A
C1125      N1131   1.342       .  A
C1126      C1127   1.402       .  A
C1126      H1137   1.082       .  S
C1127      C1136   1.374       .  A
C1127      C1128   1.384       .  A
C1128      C1129   1.403       .  A
C1128      N1134   1.344       .  A
C1129      C1130   1.403       .  A
C1129      H1138   1.082       .  S
C1130      C1133   1.375       .  A
N1131      C1132   1.357       .  A
N1131      H1141   1.044       .  S
C1132      C1133   1.400       .  A
C1133      H1139   1.080       .  S
N1134      C1135   1.357       .  A
N1134      H1142   1.044       .  S
C1135      C1136   1.397       .  A
C1136      H1140   1.082       .  S
C1143      C1148   1.385       .  A
C1143      C1144   1.403       .  A
C1143      N1149   1.342       .  A
C1144      C1145   1.401       .  A
C1144      H1155   1.082       .  S
C1145      C1154   1.378       .  A
C1145      C1146   1.385       .  A
C1146      C1147   1.404       .  A
C1146      N1152   1.343       .  A
C1147      C1148   1.403       .  A
C1147      H1156   1.082       .  S
C1148      C1151   1.380       .  A
N1149      C1150   1.353       .  A
N1149      H1159   1.045       .  S
C1150      C1151   1.396       .  A
C1151      H1157   1.082       .  S
N1152      C1153   1.356       .  A
N1152      H1160   1.045       .  S
C1153      C1154   1.394       .  A
C1154      H1158   1.082       .  S
C1161      C1166   1.384       .  A
C1161      C1162   1.403       .  A
C1161      N1167   1.342       .  A
C1162      C1163   1.402       .  A
C1162      H1173   1.082       .  S
C1163      C1172   1.379       .  A
C1163      C1164   1.385       .  A
C1164      C1165   1.403       .  A
C1164      N1170   1.342       .  A
C1165      C1166   1.402       .  A
C1165      H1174   1.082       .  S
C1166      C1169   1.379       .  A
N1167      C1168   1.356       .  A
N1167      H1177   1.045       .  S
C1168      C1169   1.396       .  A
C1169      H1175   1.082       .  S
N1170      C1171   1.353       .  A
N1170      H1178   1.045       .  S
C1171      C1172   1.393       .  A
C1172      H1176   1.082       .  S
C1179      C1184   1.383       .  A
C1179      C1180   1.402       .  A
C1179      N1185   1.341       .  A
C1180      C1181   1.401       .  A
C1180      H1191   1.083       .  S
C1181      C1190   1.375       .  A
C1181      C1182   1.383       .  A
C1182      C1183   1.402       .  A
C1182      N1188   1.341       .  A
C1183      C1184   1.400       .  A
C1183      H1192   1.083       .  S
C1184      C1187   1.375       .  A
N1185      C1186   1.357       .  A
N1185      H1195   1.045       .  S
C1186      C1187   1.397       .  A
C1187      H1193   1.082       .  S
N1188      C1189   1.357       .  A
N1188      H1196   1.043       .  S
C1189      C1190   1.397       .  A
C1190      H1194   1.082       .  S
C1197      C1202   1.383       .  A
C1197      C1198   1.406       .  A
C1197      N1203   1.344       .  A
C1198      C1199   1.405       .  A
C1198      H1209   1.082       .  S
C1199      C1208   1.379       .  A
C1199      C1200   1.383       .  A
C1200      C1201   1.400       .  A
C1200      N1206   1.339       .  A
C1201      C1202   1.398       .  A
C1201      H1210   1.082       .  S
C1202      C1205   1.373       .  A
N1203      C1204   1.359       .  A
N1203      H1213   1.044       .  S
C1204      C1205   1.393       .  A
C1205      H1211   1.081       .  S
N1206      C1207   1.356       .  A
N1206      H1214   1.044       .  S
C1207      C1208   1.401       .  A
C1208      H1212   1.082       .  S
C1215      C1220   1.385       .  A
C1215      C1216   1.405       .  A
C1215      N1221   1.344       .  A
C1216      C1217   1.404       .  A
C1216      H1227   1.082       .  S
C1217      C1226   1.381       .  A
C1217      C1218   1.385       .  A
C1218      C1219   1.403       .  A
C1218      N1224   1.342       .  A
C1219      C1220   1.401       .  A
C1219      H1228   1.082       .  S
C1220      C1223   1.377       .  A
N1221      C1222   1.355       .  A
N1221      H1231   1.044       .  S
C1222      C1223   1.395       .  A
C1223      H1229   1.082       .  S
N1224      C1225   1.354       .  A
N1224      H1232   1.045       .  S
C1225      C1226   1.395       .  A
C1226      H1230   1.082       .  S
C1233      C1238   1.383       .  A
C1233      C1234   1.402       .  A
C1233      N1239   1.343       .  A
C1234      C1235   1.402       .  A
C1234      H1245   1.083       .  S
C1235      C1244   1.373       .  A
C1235      C1236   1.381       .  A
C1236      C1237   1.403       .  A
C1236      N1242   1.344       .  A
C1237      C1238   1.403       .  A
C1237      H1246   1.082       .  S
C1238      C1241   1.376       .  A
N1239      C1240   1.357       .  A
N1239      H1249   1.044       .  S
C1240      C1241   1.399       .  A
C1241      H1247   1.082       .  S
N1242      C1243   1.358       .  A
N1242      H1250   1.044       .  S
C1243      C1244   1.400       .  A
C1244      H1248   1.080       .  S
C1251      C1256   1.385       .  A
C1251      C1252   1.403       .  A
C1251      N1257   1.342       .  A
C1252      C1253   1.402       .  A
C1252      H1263   1.082       .  S
C1253      C1262   1.378       .  A
C1253      C1254   1.385       .  A
C1254      C1255   1.403       .  A
C1254      N1260   1.342       .  A
C1255      C1256   1.402       .  A
C1255      H1264   1.082       .  S
C1256      C1259   1.378       .  A
N1257      C1258   1.353       .  A
N1257      H1267   1.044       .  S
C1258      C1259   1.394       .  A
C1259      H1265   1.082       .  S
N1260      C1261   1.355       .  A
N1260      H1268   1.045       .  S
C1261      C1262   1.395       .  A
C1262      H1266   1.082       .  S
C1269      C1274   1.383       .  A
C1269      C1270   1.405       .  A
C1269      N1275   1.344       .  A
C1270      C1271   1.405       .  A
C1270      H1281   1.083       .  S
C1271      C1280   1.377       .  A
C1271      C1272   1.382       .  A
C1272      C1273   1.400       .  A
C1272      N1278   1.341       .  A
C1273      C1274   1.400       .  A
C1273      H1282   1.082       .  S
C1274      C1277   1.373       .  A
N1275      C1276   1.359       .  A
N1275      H1285   1.044       .  S
C1276      C1277   1.396       .  A
C1277      H1283   1.082       .  S
N1278      C1279   1.356       .  A
N1278      H1286   1.043       .  S
C1279      C1280   1.402       .  A
C1280      H1284   1.080       .  S
C1287      C1292   1.385       .  A
C1287      C1288   1.404       .  A
C1287      N1293   1.345       .  A
C1288      C1289   1.404       .  A
C1288      H1299   1.082       .  S
C1289      C1298   1.378       .  A
C1289      C1290   1.386       .  A
C1290      C1291   1.401       .  A
C1290      N1296   1.343       .  A
C1291      C1292   1.401       .  A
C1291      H1300   1.082       .  S
C1292      C1295   1.374       .  A
N1293      C1294   1.356       .  A
N1293      H1303   1.045       .  S
C1294      C1295   1.393       .  A
C1295      H1301   1.082       .  S
N1296      C1297   1.353       .  A
N1296      H1304   1.045       .  S
C1297      C1298   1.393       .  A
C1298      H1302   1.082       .  S
C1305      H1306   1.106       .  S
C1305      C1311   1.544       .  S
C1305      C1310   1.534       .  S
C1305      C1309   1.542       .  S
C1307      H1308   1.111       .  S
C1307      C1313   1.538       .  S
C1307      C1312   1.531       .  S
C1307      C1314   1.528       .  S
C1309      C1312   1.376       .  D
C1309      C1605   1.491       .  S
C1310      C1313   1.374       .  D
C1310      C1548   1.479       .  S
C1311      C1314   1.377       .  D
C1311      C1569   1.492       .  S
C1312      C1623   1.472       .  S
C1313      C1530   1.483       .  S
C1314      C1584   1.473       .  S
O1315      C1325   1.278       .  A
O1315      V1649   1.948   1_554  S
O1316      C1326   1.278       .  A
O1316      V1323   1.945       .  S
O1317      C1327   1.281       .  A
O1317      V1649   1.962   1_554  S
O1318      C1328   1.280       .  A
O1318      V1323   1.960       .  S
O1319      C1328   1.233       .  A
O1319      V1650   1.836       .  S
O1320      C1327   1.234       .  A
O1320      V1324   1.836   1_554  S
O1321      C1326   1.260       .  A
O1321      V1650   1.898       .  S
O1322      C1325   1.259       .  A
O1322      V1324   1.897   1_554  S
V1323      O1641   1.948       .  S
V1323      O1643   1.962       .  S
V1323      V1650   2.017       .  T
V1324      O1645   1.836       .  S
V1324      O1647   1.898       .  S
V1324      V1649   2.017       .  T
C1325      C1401   1.512       .  S
C1326      C1376   1.510       .  S
C1327      C1361   1.500       .  S
C1328      C1393   1.497       .  S
O1329      C1339   1.233       .  A
O1329      V1989   1.835   1_554  S
O1330      C1340   1.234       .  A
O1330      V1663   1.836       .  S
O1331      C1341   1.259       .  A
O1331      V1337   1.895   1_554  S
O1332      C1342   1.258       .  A
O1332      V2315   1.894       .  S
O1333      C1342   1.278       .  A
O1333      V1990   1.945       .  S
O1334      C1341   1.277       .  A
O1334      V1664   1.941   1_554  S
O1335      C1340   1.282       .  A
O1335      V1338   1.962       .  S
O1336      C1339   1.280       .  A
O1336      V2316   1.958   1_554  S
V1337      O1981   1.835   1_546  S
V1337      O1656   1.836       .  S
V1337      O2310   1.894   1_545  S
V1337      V1664   2.017       .  T
V1338      O1985   1.945   1_545  S
V1338      O1660   1.941       .  S
V1338      O2314   1.958   1_545  S
V1338      V1663   2.017       .  T
C1339      C1369   1.495       .  S
C1340      C1377   1.500       .  S
C1341      C1360   1.505       .  S
C1342      C1384   1.509       .  S
O1343      C1353   1.279       .  A
O1344      C1354   1.279       .  A
O1344      V1351   1.951       .  S
O1345      C1355   1.281       .  A
O1345      V1677   1.963       .  S
O1346      C1356   1.281       .  A
O1347      C1356   1.234       .  A
O1347      V1352   1.838   1_554  S
O1348      C1355   1.234       .  A
O1349      C1354   1.260       .  A
O1350      C1353   1.259       .  A
O1350      V1678   1.897       .  S
V1351      O1671   1.963   1_554  S
V1352      O1676   1.897       .  S
C1353      C1392   1.513       .  S
C1354      C1368   1.516       .  S
C1355      C1385   1.502       .  S
C1356      C1400   1.503       .  S
C1357      C1512   1.484       .  S
C1357      C1362   1.405       .  A
C1358      C1587   1.477       .  S
C1358      C1359   1.400       .  A
C1359      C1360   1.398       .  A
C1359      H1364   1.085       .  S
C1361      C1362   1.399       .  A
C1362      H1363   1.083       .  S
C1365      C1494   1.479       .  S
C1365      C1366   1.420       .  A
C1365      C1370   1.400       .  A
C1366      C1533   1.489       .  S
C1366      C1367   1.409       .  A
C1367      C1368   1.400       .  A
C1367      H1372   1.084       .  S
C1368      C1369   1.453       .  A
C1369      C1370   1.398       .  A
C1370      H1371   1.085       .  S
C1373      C1566   1.488       .  S
C1373      C1378   1.406       .  A
C1374      C1479   1.477       .  S
C1374      C1375   1.402       .  A
C1375      C1376   1.399       .  A
C1375      H1380   1.085       .  S
C1377      C1378   1.400       .  A
C1378      H1379   1.083       .  S
C1381      C1551   1.474       .  S
C1381      C1382   1.415       .  A
C1381      C1386   1.403       .  A
C1382      C1461   1.484       .  S
C1382      C1383   1.403       .  A
C1383      C1384   1.397       .  A
C1383      H1388   1.084       .  S
C1384      C1385   1.455       .  A
C1385      C1386   1.401       .  A
C1386      H1387   1.084       .  S
C1389      C1602   1.486       .  S
C1389      C2042   1.415   1_545  A
C1389      C1394   1.404       .  A
C1390      C1443   1.473       .  S
C1390      C2041   1.415       .  A
C1390      C1391   1.403       .  A
C1391      C1392   1.399       .  A
C1391      H1396   1.085       .  S
C1392      C2045   1.455       .  A
C1393      C2044   1.455   1_545  A
C1393      C1394   1.399       .  A
C1394      H1395   1.084       .  S
C1397      C1620   1.476       .  S
C1397      C2050   1.417   1_545  A
C1397      C1402   1.403       .  A
C1398      C1422   1.490       .  S
C1398      C2049   1.417       .  A
C1398      C1399   1.407       .  A
C1399      C1400   1.402       .  A
C1399      H1404   1.083       .  S
C1400      C2053   1.456       .  A
C1401      C2052   1.456   1_545  A
C1401      C1402   1.398       .  A
C1402      H1403   1.085       .  S
C1405      H1406   1.109       .  S
C1405      C1411   1.539       .  S
C1405      C1410   1.530       .  S
C1405      C1409   1.535       .  S
C1407      H1408   1.110       .  S
C1407      C1413   1.541       .  S
C1407      C1412   1.537       .  S
C1407      C1414   1.532       .  S
C1409      C1412   1.376       .  D
C1409      C1515   1.485       .  S
C1410      C1413   1.375       .  D
C1410      C1497   1.470       .  S
C1411      C1414   1.375       .  D
C1411      C1425   1.488       .  S
C1412      C1476   1.475       .  S
C1413      C1458   1.489       .  S
C1414      C1440   1.473       .  S
C1415      C1420   1.382       .  A
C1415      C1416   1.403       .  A
C1415      N1421   1.342       .  A
C1416      C1417   1.401       .  A
C1416      H1427   1.082       .  S
C1417      C1426   1.376       .  A
C1417      C1418   1.382       .  A
C1418      C1419   1.404       .  A
C1418      N1424   1.343       .  A
C1419      C1420   1.403       .  A
C1419      H1428   1.082       .  S
C1420      C1423   1.378       .  A
N1421      C1422   1.358       .  A
N1421      H1431   1.044       .  S
C1422      C1423   1.400       .  A
C1423      H1429   1.081       .  S
N1424      C1425   1.359       .  A
N1424      H1432   1.043       .  S
C1425      C1426   1.396       .  A
C1426      H1430   1.082       .  S
C1433      C1438   1.385       .  A
C1433      C1434   1.403       .  A
C1433      N1439   1.342       .  A
C1434      C1435   1.401       .  A
C1434      H1445   1.082       .  S
C1435      C1444   1.377       .  A
C1435      C1436   1.385       .  A
C1436      C1437   1.402       .  A
C1436      N1442   1.342       .  A
C1437      C1438   1.401       .  A
C1437      H1446   1.082       .  S
C1438      C1441   1.377       .  A
N1439      C1440   1.353       .  A
N1439      H1449   1.044       .  S
C1440      C1441   1.394       .  A
C1441      H1447   1.082       .  S
N1442      C1443   1.354       .  A
N1442      H1450   1.045       .  S
C1443      C1444   1.394       .  A
C1444      H1448   1.082       .  S
C1451      C1456   1.382       .  A
C1451      C1452   1.402       .  A
C1451      N1457   1.342       .  A
C1452      C1453   1.402       .  A
C1452      H1463   1.082       .  S
C1453      C1462   1.374       .  A
C1453      C1454   1.384       .  A
C1454      C1455   1.403       .  A
C1454      N1460   1.344       .  A
C1455      C1456   1.403       .  A
C1455      H1464   1.082       .  S
C1456      C1459   1.375       .  A
N1457      C1458   1.357       .  A
N1457      H1467   1.044       .  S
C1458      C1459   1.400       .  A
C1459      H1465   1.080       .  S
N1460      C1461   1.357       .  A
N1460      H1468   1.044       .  S
C1461      C1462   1.397       .  A
C1462      H1466   1.082       .  S
C1469      C1474   1.385       .  A
C1469      C1470   1.403       .  A
C1469      N1475   1.342       .  A
C1470      C1471   1.401       .  A
C1470      H1481   1.082       .  S
C1471      C1480   1.378       .  A
C1471      C1472   1.385       .  A
C1472      C1473   1.404       .  A
C1472      N1478   1.343       .  A
C1473      C1474   1.403       .  A
C1473      H1482   1.082       .  S
C1474      C1477   1.380       .  A
N1475      C1476   1.353       .  A
N1475      H1485   1.045       .  S
C1476      C1477   1.396       .  A
C1477      H1483   1.082       .  S
N1478      C1479   1.356       .  A
N1478      H1486   1.045       .  S
C1479      C1480   1.394       .  A
C1480      H1484   1.082       .  S
C1487      C1492   1.384       .  A
C1487      C1488   1.403       .  A
C1487      N1493   1.342       .  A
C1488      C1489   1.402       .  A
C1488      H1499   1.082       .  S
C1489      C1498   1.379       .  A
C1489      C1490   1.385       .  A
C1490      C1491   1.403       .  A
C1490      N1496   1.342       .  A
C1491      C1492   1.402       .  A
C1491      H1500   1.082       .  S
C1492      C1495   1.379       .  A
N1493      C1494   1.356       .  A
N1493      H1503   1.045       .  S
C1494      C1495   1.396       .  A
C1495      H1501   1.082       .  S
N1496      C1497   1.353       .  A
N1496      H1504   1.045       .  S
C1497      C1498   1.393       .  A
C1498      H1502   1.082       .  S
C1505      C1510   1.383       .  A
C1505      C1506   1.402       .  A
C1505      N1511   1.341       .  A
C1506      C1507   1.401       .  A
C1506      H1517   1.083       .  S
C1507      C1516   1.375       .  A
C1507      C1508   1.383       .  A
C1508      C1509   1.402       .  A
C1508      N1514   1.341       .  A
C1509      C1510   1.400       .  A
C1509      H1518   1.083       .  S
C1510      C1513   1.375       .  A
N1511      C1512   1.357       .  A
N1511      H1521   1.045       .  S
C1512      C1513   1.397       .  A
C1513      H1519   1.082       .  S
N1514      C1515   1.357       .  A
N1514      H1522   1.043       .  S
C1515      C1516   1.397       .  A
C1516      H1520   1.082       .  S
C1523      C1528   1.383       .  A
C1523      C1524   1.406       .  A
C1523      N1529   1.344       .  A
C1524      C1525   1.405       .  A
C1524      H1535   1.082       .  S
C1525      C1534   1.379       .  A
C1525      C1526   1.383       .  A
C1526      C1527   1.400       .  A
C1526      N1532   1.339       .  A
C1527      C1528   1.398       .  A
C1527      H1536   1.082       .  S
C1528      C1531   1.373       .  A
N1529      C1530   1.359       .  A
N1529      H1539   1.044       .  S
C1530      C1531   1.393       .  A
C1531      H1537   1.081       .  S
N1532      C1533   1.356       .  A
N1532      H1540   1.044       .  S
C1533      C1534   1.401       .  A
C1534      H1538   1.082       .  S
C1541      C1546   1.385       .  A
C1541      C1542   1.405       .  A
C1541      N1547   1.344       .  A
C1542      C1543   1.404       .  A
C1542      H1553   1.082       .  S
C1543      C1552   1.381       .  A
C1543      C1544   1.385       .  A
C1544      C1545   1.403       .  A
C1544      N1550   1.342       .  A
C1545      C1546   1.401       .  A
C1545      H1554   1.082       .  S
C1546      C1549   1.377       .  A
N1547      C1548   1.355       .  A
N1547      H1557   1.044       .  S
C1548      C1549   1.395       .  A
C1549      H1555   1.082       .  S
N1550      C1551   1.354       .  A
N1550      H1558   1.045       .  S
C1551      C1552   1.395       .  A
C1552      H1556   1.082       .  S
C1559      C1564   1.383       .  A
C1559      C1560   1.402       .  A
C1559      N1565   1.343       .  A
C1560      C1561   1.402       .  A
C1560      H1571   1.083       .  S
C1561      C1570   1.373       .  A
C1561      C1562   1.381       .  A
C1562      C1563   1.403       .  A
C1562      N1568   1.344       .  A
C1563      C1564   1.403       .  A
C1563      H1572   1.082       .  S
C1564      C1567   1.376       .  A
N1565      C1566   1.357       .  A
N1565      H1575   1.044       .  S
C1566      C1567   1.399       .  A
C1567      H1573   1.082       .  S
N1568      C1569   1.358       .  A
N1568      H1576   1.044       .  S
C1569      C1570   1.400       .  A
C1570      H1574   1.080       .  S
C1577      C1582   1.385       .  A
C1577      C1578   1.403       .  A
C1577      N1583   1.342       .  A
C1578      C1579   1.402       .  A
C1578      H1589   1.082       .  S
C1579      C1588   1.378       .  A
C1579      C1580   1.385       .  A
C1580      C1581   1.403       .  A
C1580      N1586   1.342       .  A
C1581      C1582   1.402       .  A
C1581      H1590   1.082       .  S
C1582      C1585   1.378       .  A
N1583      C1584   1.353       .  A
N1583      H1593   1.044       .  S
C1584      C1585   1.394       .  A
C1585      H1591   1.082       .  S
N1586      C1587   1.355       .  A
N1586      H1594   1.045       .  S
C1587      C1588   1.395       .  A
C1588      H1592   1.082       .  S
C1595      C1600   1.383       .  A
C1595      C1596   1.405       .  A
C1595      N1601   1.344       .  A
C1596      C1597   1.405       .  A
C1596      H1607   1.083       .  S
C1597      C1606   1.377       .  A
C1597      C1598   1.382       .  A
C1598      C1599   1.400       .  A
C1598      N1604   1.341       .  A
C1599      C1600   1.400       .  A
C1599      H1608   1.082       .  S
C1600      C1603   1.373       .  A
N1601      C1602   1.359       .  A
N1601      H1611   1.044       .  S
C1602      C1603   1.396       .  A
C1603      H1609   1.082       .  S
N1604      C1605   1.356       .  A
N1604      H1612   1.043       .  S
C1605      C1606   1.402       .  A
C1606      H1610   1.080       .  S
C1613      C1618   1.385       .  A
C1613      C1614   1.404       .  A
C1613      N1619   1.345       .  A
C1614      C1615   1.404       .  A
C1614      H1625   1.082       .  S
C1615      C1624   1.378       .  A
C1615      C1616   1.386       .  A
C1616      C1617   1.401       .  A
C1616      N1622   1.343       .  A
C1617      C1618   1.401       .  A
C1617      H1626   1.082       .  S
C1618      C1621   1.374       .  A
N1619      C1620   1.356       .  A
N1619      H1629   1.045       .  S
C1620      C1621   1.393       .  A
C1621      H1627   1.082       .  S
N1622      C1623   1.353       .  A
N1622      H1630   1.045       .  S
C1623      C1624   1.393       .  A
C1624      H1628   1.082       .  S
C1631      H1632   1.106       .  S
C1631      C1637   1.544       .  S
C1631      C1636   1.534       .  S
C1631      C1635   1.542       .  S
C1633      H1634   1.111       .  S
C1633      C1639   1.538       .  S
C1633      C1638   1.531       .  S
C1633      C1640   1.528       .  S
C1635      C1638   1.376       .  D
C1635      C1931   1.491       .  S
C1636      C1639   1.374       .  D
C1636      C1874   1.479       .  S
C1637      C1640   1.377       .  D
C1637      C1895   1.492       .  S
C1638      C1949   1.472       .  S
C1639      C1856   1.483       .  S
C1640      C1910   1.473       .  S
O1641      C1651   1.278       .  A
O1642      C1652   1.278       .  A
O1642      V1649   1.945       .  S
O1643      C1653   1.281       .  A
O1644      C1654   1.280       .  A
O1644      V1649   1.960       .  S
O1645      C1654   1.233       .  A
O1646      C1653   1.234       .  A
O1646      V1650   1.836       .  S
O1647      C1652   1.260       .  A
O1648      C1651   1.259       .  A
O1648      V1650   1.897       .  S
C1651      C1727   1.512       .  S
C1652      C1702   1.510       .  S
C1653      C1687   1.500       .  S
C1654      C1719   1.497       .  S
O1655      C1665   1.233       .  A
O1655      V2315   1.835       .  S
O1656      C1666   1.234       .  A
O1657      C1667   1.259       .  A
O1657      V1663   1.895       .  S
O1658      C1668   1.258       .  A
O1658      V1989   1.894       .  S
O1659      C1668   1.278       .  A
O1659      V2316   1.945       .  S
O1660      C1667   1.277       .  A
O1661      C1666   1.282       .  A
O1661      V1664   1.962       .  S
O1662      C1665   1.280       .  A
O1662      V1990   1.958       .  S
V1663      O2307   1.835   1_545  S
V1663      O1984   1.894   1_545  S
V1664      O2311   1.945   1_545  S
V1664      O1988   1.958   1_546  S
C1665      C1695   1.495       .  S
C1666      C1703   1.500       .  S
C1667      C1686   1.505       .  S
C1668      C1710   1.509       .  S
O1669      C1679   1.279       .  A
O1670      C1680   1.279       .  A
O1670      V1677   1.951       .  S
O1671      C1681   1.281       .  A
O1672      C1682   1.281       .  A
O1673      C1682   1.234       .  A
O1673      V1678   1.838       .  S
O1674      C1681   1.234       .  A
O1675      C1680   1.260       .  A
O1676      C1679   1.259       .  A
C1679      C1718   1.513       .  S
C1680      C1694   1.516       .  S
C1681      C1711   1.502       .  S
C1682      C1726   1.503       .  S
C1683      C1838   1.484       .  S
C1683      C1688   1.405       .  A
C1684      C1913   1.477       .  S
C1684      C1685   1.400       .  A
C1685      C1686   1.398       .  A
C1685      H1690   1.085       .  S
C1687      C1688   1.399       .  A
C1688      H1689   1.083       .  S
C1691      C1820   1.479       .  S
C1691      C1692   1.420       .  A
C1691      C1696   1.400       .  A
C1692      C1859   1.489       .  S
C1692      C1693   1.409       .  A
C1693      C1694   1.400       .  A
C1693      H1698   1.084       .  S
C1694      C1695   1.453       .  A
C1695      C1696   1.398       .  A
C1696      H1697   1.085       .  S
C1699      C1892   1.488       .  S
C1699      C1704   1.406       .  A
C1700      C1805   1.477       .  S
C1700      C1701   1.402       .  A
C1701      C1702   1.399       .  A
C1701      H1706   1.085       .  S
C1703      C1704   1.400       .  A
C1704      H1705   1.083       .  S
C1707      C1877   1.474       .  S
C1707      C1708   1.415       .  A
C1707      C1712   1.403       .  A
C1708      C1787   1.484       .  S
C1708      C1709   1.403       .  A
C1709      C1710   1.397       .  A
C1709      H1714   1.084       .  S
C1710      C1711   1.455       .  A
C1711      C1712   1.401       .  A
C1712      H1713   1.084       .  S
C1715      C1928   1.486       .  S
C1715      C2368   1.415   1_545  A
C1715      C1720   1.404       .  A
C1716      C1769   1.473       .  S
C1716      C2367   1.415       .  A
C1716      C1717   1.403       .  A
C1717      C1718   1.399       .  A
C1717      H1722   1.085       .  S
C1718      C2371   1.455       .  A
C1719      C2370   1.455   1_545  A
C1719      C1720   1.399       .  A
C1720      H1721   1.084       .  S
C1723      C1946   1.476       .  S
C1723      C2376   1.417   1_545  A
C1723      C1728   1.403       .  A
C1724      C1748   1.490       .  S
C1724      C2375   1.417       .  A
C1724      C1725   1.407       .  A
C1725      C1726   1.402       .  A
C1725      H1730   1.083       .  S
C1726      C2379   1.456       .  A
C1727      C2378   1.456   1_545  A
C1727      C1728   1.398       .  A
C1728      H1729   1.085       .  S
C1731      H1732   1.109       .  S
C1731      C1737   1.539       .  S
C1731      C1736   1.530       .  S
C1731      C1735   1.535       .  S
C1733      H1734   1.110       .  S
C1733      C1739   1.541       .  S
C1733      C1738   1.537       .  S
C1733      C1740   1.532       .  S
C1735      C1738   1.376       .  D
C1735      C1841   1.485       .  S
C1736      C1739   1.375       .  D
C1736      C1823   1.470       .  S
C1737      C1740   1.375       .  D
C1737      C1751   1.488       .  S
C1738      C1802   1.475       .  S
C1739      C1784   1.489       .  S
C1740      C1766   1.473       .  S
C1741      C1746   1.382       .  A
C1741      C1742   1.403       .  A
C1741      N1747   1.342       .  A
C1742      C1743   1.401       .  A
C1742      H1753   1.082       .  S
C1743      C1752   1.376       .  A
C1743      C1744   1.382       .  A
C1744      C1745   1.404       .  A
C1744      N1750   1.343       .  A
C1745      C1746   1.403       .  A
C1745      H1754   1.082       .  S
C1746      C1749   1.378       .  A
N1747      C1748   1.358       .  A
N1747      H1757   1.044       .  S
C1748      C1749   1.400       .  A
C1749      H1755   1.081       .  S
N1750      C1751   1.359       .  A
N1750      H1758   1.043       .  S
C1751      C1752   1.396       .  A
C1752      H1756   1.082       .  S
C1759      C1764   1.385       .  A
C1759      C1760   1.403       .  A
C1759      N1765   1.342       .  A
C1760      C1761   1.401       .  A
C1760      H1771   1.082       .  S
C1761      C1770   1.377       .  A
C1761      C1762   1.385       .  A
C1762      C1763   1.402       .  A
C1762      N1768   1.342       .  A
C1763      C1764   1.401       .  A
C1763      H1772   1.082       .  S
C1764      C1767   1.377       .  A
N1765      C1766   1.353       .  A
N1765      H1775   1.044       .  S
C1766      C1767   1.394       .  A
C1767      H1773   1.082       .  S
N1768      C1769   1.354       .  A
N1768      H1776   1.045       .  S
C1769      C1770   1.394       .  A
C1770      H1774   1.082       .  S
C1777      C1782   1.382       .  A
C1777      C1778   1.402       .  A
C1777      N1783   1.342       .  A
C1778      C1779   1.402       .  A
C1778      H1789   1.082       .  S
C1779      C1788   1.374       .  A
C1779      C1780   1.384       .  A
C1780      C1781   1.403       .  A
C1780      N1786   1.344       .  A
C1781      C1782   1.403       .  A
C1781      H1790   1.082       .  S
C1782      C1785   1.375       .  A
N1783      C1784   1.357       .  A
N1783      H1793   1.044       .  S
C1784      C1785   1.400       .  A
C1785      H1791   1.080       .  S
N1786      C1787   1.357       .  A
N1786      H1794   1.044       .  S
C1787      C1788   1.397       .  A
C1788      H1792   1.082       .  S
C1795      C1800   1.385       .  A
C1795      C1796   1.403       .  A
C1795      N1801   1.342       .  A
C1796      C1797   1.401       .  A
C1796      H1807   1.082       .  S
C1797      C1806   1.378       .  A
C1797      C1798   1.385       .  A
C1798      C1799   1.404       .  A
C1798      N1804   1.343       .  A
C1799      C1800   1.403       .  A
C1799      H1808   1.082       .  S
C1800      C1803   1.380       .  A
N1801      C1802   1.353       .  A
N1801      H1811   1.045       .  S
C1802      C1803   1.396       .  A
C1803      H1809   1.082       .  S
N1804      C1805   1.356       .  A
N1804      H1812   1.045       .  S
C1805      C1806   1.394       .  A
C1806      H1810   1.082       .  S
C1813      C1818   1.384       .  A
C1813      C1814   1.403       .  A
C1813      N1819   1.342       .  A
C1814      C1815   1.402       .  A
C1814      H1825   1.082       .  S
C1815      C1824   1.379       .  A
C1815      C1816   1.385       .  A
C1816      C1817   1.403       .  A
C1816      N1822   1.342       .  A
C1817      C1818   1.402       .  A
C1817      H1826   1.082       .  S
C1818      C1821   1.379       .  A
N1819      C1820   1.356       .  A
N1819      H1829   1.045       .  S
C1820      C1821   1.396       .  A
C1821      H1827   1.082       .  S
N1822      C1823   1.353       .  A
N1822      H1830   1.045       .  S
C1823      C1824   1.393       .  A
C1824      H1828   1.082       .  S
C1831      C1836   1.383       .  A
C1831      C1832   1.402       .  A
C1831      N1837   1.341       .  A
C1832      C1833   1.401       .  A
C1832      H1843   1.083       .  S
C1833      C1842   1.375       .  A
C1833      C1834   1.383       .  A
C1834      C1835   1.402       .  A
C1834      N1840   1.341       .  A
C1835      C1836   1.400       .  A
C1835      H1844   1.083       .  S
C1836      C1839   1.375       .  A
N1837      C1838   1.357       .  A
N1837      H1847   1.045       .  S
C1838      C1839   1.397       .  A
C1839      H1845   1.082       .  S
N1840      C1841   1.357       .  A
N1840      H1848   1.043       .  S
C1841      C1842   1.397       .  A
C1842      H1846   1.082       .  S
C1849      C1854   1.383       .  A
C1849      C1850   1.406       .  A
C1849      N1855   1.344       .  A
C1850      C1851   1.405       .  A
C1850      H1861   1.082       .  S
C1851      C1860   1.379       .  A
C1851      C1852   1.383       .  A
C1852      C1853   1.400       .  A
C1852      N1858   1.339       .  A
C1853      C1854   1.398       .  A
C1853      H1862   1.082       .  S
C1854      C1857   1.373       .  A
N1855      C1856   1.359       .  A
N1855      H1865   1.044       .  S
C1856      C1857   1.393       .  A
C1857      H1863   1.081       .  S
N1858      C1859   1.356       .  A
N1858      H1866   1.044       .  S
C1859      C1860   1.401       .  A
C1860      H1864   1.082       .  S
C1867      C1872   1.385       .  A
C1867      C1868   1.405       .  A
C1867      N1873   1.344       .  A
C1868      C1869   1.404       .  A
C1868      H1879   1.082       .  S
C1869      C1878   1.381       .  A
C1869      C1870   1.385       .  A
C1870      C1871   1.403       .  A
C1870      N1876   1.342       .  A
C1871      C1872   1.401       .  A
C1871      H1880   1.082       .  S
C1872      C1875   1.377       .  A
N1873      C1874   1.355       .  A
N1873      H1883   1.044       .  S
C1874      C1875   1.395       .  A
C1875      H1881   1.082       .  S
N1876      C1877   1.354       .  A
N1876      H1884   1.045       .  S
C1877      C1878   1.395       .  A
C1878      H1882   1.082       .  S
C1885      C1890   1.383       .  A
C1885      C1886   1.402       .  A
C1885      N1891   1.343       .  A
C1886      C1887   1.402       .  A
C1886      H1897   1.083       .  S
C1887      C1896   1.373       .  A
C1887      C1888   1.381       .  A
C1888      C1889   1.403       .  A
C1888      N1894   1.344       .  A
C1889      C1890   1.403       .  A
C1889      H1898   1.082       .  S
C1890      C1893   1.376       .  A
N1891      C1892   1.357       .  A
N1891      H1901   1.044       .  S
C1892      C1893   1.399       .  A
C1893      H1899   1.082       .  S
N1894      C1895   1.358       .  A
N1894      H1902   1.044       .  S
C1895      C1896   1.400       .  A
C1896      H1900   1.080       .  S
C1903      C1908   1.385       .  A
C1903      C1904   1.403       .  A
C1903      N1909   1.342       .  A
C1904      C1905   1.402       .  A
C1904      H1915   1.082       .  S
C1905      C1914   1.378       .  A
C1905      C1906   1.385       .  A
C1906      C1907   1.403       .  A
C1906      N1912   1.342       .  A
C1907      C1908   1.402       .  A
C1907      H1916   1.082       .  S
C1908      C1911   1.378       .  A
N1909      C1910   1.353       .  A
N1909      H1919   1.044       .  S
C1910      C1911   1.394       .  A
C1911      H1917   1.082       .  S
N1912      C1913   1.355       .  A
N1912      H1920   1.045       .  S
C1913      C1914   1.395       .  A
C1914      H1918   1.082       .  S
C1921      C1926   1.383       .  A
C1921      C1922   1.405       .  A
C1921      N1927   1.344       .  A
C1922      C1923   1.405       .  A
C1922      H1933   1.083       .  S
C1923      C1932   1.377       .  A
C1923      C1924   1.382       .  A
C1924      C1925   1.400       .  A
C1924      N1930   1.341       .  A
C1925      C1926   1.400       .  A
C1925      H1934   1.082       .  S
C1926      C1929   1.373       .  A
N1927      C1928   1.359       .  A
N1927      H1937   1.044       .  S
C1928      C1929   1.396       .  A
C1929      H1935   1.082       .  S
N1930      C1931   1.356       .  A
N1930      H1938   1.043       .  S
C1931      C1932   1.402       .  A
C1932      H1936   1.080       .  S
C1939      C1944   1.385       .  A
C1939      C1940   1.404       .  A
C1939      N1945   1.345       .  A
C1940      C1941   1.404       .  A
C1940      H1951   1.082       .  S
C1941      C1950   1.378       .  A
C1941      C1942   1.386       .  A
C1942      C1943   1.401       .  A
C1942      N1948   1.343       .  A
C1943      C1944   1.401       .  A
C1943      H1952   1.082       .  S
C1944      C1947   1.374       .  A
N1945      C1946   1.356       .  A
N1945      H1955   1.045       .  S
C1946      C1947   1.393       .  A
C1947      H1953   1.082       .  S
N1948      C1949   1.353       .  A
N1948      H1956   1.045       .  S
C1949      C1950   1.393       .  A
C1950      H1954   1.082       .  S
C1957      H1958   1.106       .  S
C1957      C1963   1.544       .  S
C1957      C1962   1.534       .  S
C1957      C1961   1.542       .  S
C1959      H1960   1.111       .  S
C1959      C1965   1.538       .  S
C1959      C1964   1.531       .  S
C1959      C1966   1.528       .  S
C1961      C1964   1.376       .  D
C1961      C2257   1.491       .  S
C1962      C1965   1.374       .  D
C1962      C2200   1.479       .  S
C1963      C1966   1.377       .  D
C1963      C2221   1.492       .  S
C1964      C2275   1.472       .  S
C1965      C2182   1.483       .  S
C1966      C2236   1.473       .  S
O1967      C1977   1.278       .  A
O1967      V2301   1.948   1_554  S
O1968      C1978   1.278       .  A
O1968      V1975   1.945       .  S
O1969      C1979   1.281       .  A
O1969      V2301   1.962   1_554  S
O1970      C1980   1.280       .  A
O1970      V1975   1.960       .  S
O1971      C1980   1.233       .  A
O1971      V2302   1.836       .  S
O1972      C1979   1.234       .  A
O1972      V1976   1.836   1_554  S
O1973      C1978   1.260       .  A
O1973      V2302   1.898       .  S
O1974      C1977   1.259       .  A
O1974      V1976   1.897   1_554  S
V1975      O2293   1.948       .  S
V1975      O2295   1.962       .  S
V1975      V2302   2.017       .  T
V1976      O2297   1.836       .  S
V1976      O2299   1.898       .  S
V1976      V2301   2.017       .  T
C1977      C2053   1.512       .  S
C1978      C2028   1.510       .  S
C1979      C2013   1.500       .  S
C1980      C2045   1.497       .  S
O1981      C1991   1.233       .  A
O1982      C1992   1.234       .  A
O1982      V2315   1.836       .  S
O1983      C1993   1.259       .  A
O1983      V1989   1.895   1_554  S
O1984      C1994   1.258       .  A
O1985      C1994   1.278       .  A
O1986      C1993   1.277       .  A
O1986      V2316   1.941   1_554  S
O1987      C1992   1.282       .  A
O1987      V1990   1.962       .  S
O1988      C1991   1.280       .  A
V1989      O2308   1.836       .  S
V1989      V2316   2.017       .  T
V1990      O2312   1.941       .  S
V1990      V2315   2.017       .  T
C1991      C2021   1.495       .  S
C1992      C2029   1.500       .  S
C1993      C2012   1.505       .  S
C1994      C2036   1.509       .  S
O1995      C2005   1.279       .  A
O1996      C2006   1.279       .  A
O1996      V2003   1.951       .  S
O1997      C2007   1.281       .  A
O1997      V2329   1.963       .  S
O1998      C2008   1.281       .  A
O1999      C2008   1.234       .  A
O1999      V2004   1.838   1_554  S
O2000      C2007   1.234       .  A
O2001      C2006   1.260       .  A
O2002      C2005   1.259       .  A
O2002      V2330   1.897       .  S
V2003      O2323   1.963   1_554  S
V2004      O2328   1.897       .  S
C2005      C2044   1.513       .  S
C2006      C2020   1.516       .  S
C2007      C2037   1.502       .  S
C2008      C2052   1.503       .  S
C2009      C2164   1.484       .  S
C2009      C2014   1.405       .  A
C2010      C2239   1.477       .  S
C2010      C2011   1.400       .  A
C2011      C2012   1.398       .  A
C2011      H2016   1.085       .  S
C2013      C2014   1.399       .  A
C2014      H2015   1.083       .  S
C2017      C2146   1.479       .  S
C2017      C2018   1.420       .  A
C2017      C2022   1.400       .  A
C2018      C2185   1.489       .  S
C2018      C2019   1.409       .  A
C2019      C2020   1.400       .  A
C2019      H2024   1.084       .  S
C2020      C2021   1.453       .  A
C2021      C2022   1.398       .  A
C2022      H2023   1.085       .  S
C2025      C2218   1.488       .  S
C2025      C2030   1.406       .  A
C2026      C2131   1.477       .  S
C2026      C2027   1.402       .  A
C2027      C2028   1.399       .  A
C2027      H2032   1.085       .  S
C2029      C2030   1.400       .  A
C2030      H2031   1.083       .  S
C2033      C2203   1.474       .  S
C2033      C2034   1.415       .  A
C2033      C2038   1.403       .  A
C2034      C2113   1.484       .  S
C2034      C2035   1.403       .  A
C2035      C2036   1.397       .  A
C2035      H2040   1.084       .  S
C2036      C2037   1.455       .  A
C2037      C2038   1.401       .  A
C2038      H2039   1.084       .  S
C2041      C2254   1.486       .  S
C2041      C2046   1.404       .  A
C2042      C2095   1.473       .  S
C2042      C2043   1.403       .  A
C2043      C2044   1.399       .  A
C2043      H2048   1.085       .  S
C2045      C2046   1.399       .  A
C2046      H2047   1.084       .  S
C2049      C2272   1.476       .  S
C2049      C2054   1.403       .  A
C2050      C2074   1.490       .  S
C2050      C2051   1.407       .  A
C2051      C2052   1.402       .  A
C2051      H2056   1.083       .  S
C2053      C2054   1.398       .  A
C2054      H2055   1.085       .  S
C2057      H2058   1.109       .  S
C2057      C2063   1.539       .  S
C2057      C2062   1.530       .  S
C2057      C2061   1.535       .  S
C2059      H2060   1.110       .  S
C2059      C2065   1.541       .  S
C2059      C2064   1.537       .  S
C2059      C2066   1.532       .  S
C2061      C2064   1.376       .  D
C2061      C2167   1.485       .  S
C2062      C2065   1.375       .  D
C2062      C2149   1.470       .  S
C2063      C2066   1.375       .  D
C2063      C2077   1.488       .  S
C2064      C2128   1.475       .  S
C2065      C2110   1.489       .  S
C2066      C2092   1.473       .  S
C2067      C2072   1.382       .  A
C2067      C2068   1.403       .  A
C2067      N2073   1.342       .  A
C2068      C2069   1.401       .  A
C2068      H2079   1.082       .  S
C2069      C2078   1.376       .  A
C2069      C2070   1.382       .  A
C2070      C2071   1.404       .  A
C2070      N2076   1.343       .  A
C2071      C2072   1.403       .  A
C2071      H2080   1.082       .  S
C2072      C2075   1.378       .  A
N2073      C2074   1.358       .  A
N2073      H2083   1.044       .  S
C2074      C2075   1.400       .  A
C2075      H2081   1.081       .  S
N2076      C2077   1.359       .  A
N2076      H2084   1.043       .  S
C2077      C2078   1.396       .  A
C2078      H2082   1.082       .  S
C2085      C2090   1.385       .  A
C2085      C2086   1.403       .  A
C2085      N2091   1.342       .  A
C2086      C2087   1.401       .  A
C2086      H2097   1.082       .  S
C2087      C2096   1.377       .  A
C2087      C2088   1.385       .  A
C2088      C2089   1.402       .  A
C2088      N2094   1.342       .  A
C2089      C2090   1.401       .  A
C2089      H2098   1.082       .  S
C2090      C2093   1.377       .  A
N2091      C2092   1.353       .  A
N2091      H2101   1.044       .  S
C2092      C2093   1.394       .  A
C2093      H2099   1.082       .  S
N2094      C2095   1.354       .  A
N2094      H2102   1.045       .  S
C2095      C2096   1.394       .  A
C2096      H2100   1.082       .  S
C2103      C2108   1.382       .  A
C2103      C2104   1.402       .  A
C2103      N2109   1.342       .  A
C2104      C2105   1.402       .  A
C2104      H2115   1.082       .  S
C2105      C2114   1.374       .  A
C2105      C2106   1.384       .  A
C2106      C2107   1.403       .  A
C2106      N2112   1.344       .  A
C2107      C2108   1.403       .  A
C2107      H2116   1.082       .  S
C2108      C2111   1.375       .  A
N2109      C2110   1.357       .  A
N2109      H2119   1.044       .  S
C2110      C2111   1.400       .  A
C2111      H2117   1.080       .  S
N2112      C2113   1.357       .  A
N2112      H2120   1.044       .  S
C2113      C2114   1.397       .  A
C2114      H2118   1.082       .  S
C2121      C2126   1.385       .  A
C2121      C2122   1.403       .  A
C2121      N2127   1.342       .  A
C2122      C2123   1.401       .  A
C2122      H2133   1.082       .  S
C2123      C2132   1.378       .  A
C2123      C2124   1.385       .  A
C2124      C2125   1.404       .  A
C2124      N2130   1.343       .  A
C2125      C2126   1.403       .  A
C2125      H2134   1.082       .  S
C2126      C2129   1.380       .  A
N2127      C2128   1.353       .  A
N2127      H2137   1.045       .  S
C2128      C2129   1.396       .  A
C2129      H2135   1.082       .  S
N2130      C2131   1.356       .  A
N2130      H2138   1.045       .  S
C2131      C2132   1.394       .  A
C2132      H2136   1.082       .  S
C2139      C2144   1.384       .  A
C2139      C2140   1.403       .  A
C2139      N2145   1.342       .  A
C2140      C2141   1.402       .  A
C2140      H2151   1.082       .  S
C2141      C2150   1.379       .  A
C2141      C2142   1.385       .  A
C2142      C2143   1.403       .  A
C2142      N2148   1.342       .  A
C2143      C2144   1.402       .  A
C2143      H2152   1.082       .  S
C2144      C2147   1.379       .  A
N2145      C2146   1.356       .  A
N2145      H2155   1.045       .  S
C2146      C2147   1.396       .  A
C2147      H2153   1.082       .  S
N2148      C2149   1.353       .  A
N2148      H2156   1.045       .  S
C2149      C2150   1.393       .  A
C2150      H2154   1.082       .  S
C2157      C2162   1.383       .  A
C2157      C2158   1.402       .  A
C2157      N2163   1.341       .  A
C2158      C2159   1.401       .  A
C2158      H2169   1.083       .  S
C2159      C2168   1.375       .  A
C2159      C2160   1.383       .  A
C2160      C2161   1.402       .  A
C2160      N2166   1.341       .  A
C2161      C2162   1.400       .  A
C2161      H2170   1.083       .  S
C2162      C2165   1.375       .  A
N2163      C2164   1.357       .  A
N2163      H2173   1.045       .  S
C2164      C2165   1.397       .  A
C2165      H2171   1.082       .  S
N2166      C2167   1.357       .  A
N2166      H2174   1.043       .  S
C2167      C2168   1.397       .  A
C2168      H2172   1.082       .  S
C2175      C2180   1.383       .  A
C2175      C2176   1.406       .  A
C2175      N2181   1.344       .  A
C2176      C2177   1.405       .  A
C2176      H2187   1.082       .  S
C2177      C2186   1.379       .  A
C2177      C2178   1.383       .  A
C2178      C2179   1.400       .  A
C2178      N2184   1.339       .  A
C2179      C2180   1.398       .  A
C2179      H2188   1.082       .  S
C2180      C2183   1.373       .  A
N2181      C2182   1.359       .  A
N2181      H2191   1.044       .  S
C2182      C2183   1.393       .  A
C2183      H2189   1.081       .  S
N2184      C2185   1.356       .  A
N2184      H2192   1.044       .  S
C2185      C2186   1.401       .  A
C2186      H2190   1.082       .  S
C2193      C2198   1.385       .  A
C2193      C2194   1.405       .  A
C2193      N2199   1.344       .  A
C2194      C2195   1.404       .  A
C2194      H2205   1.082       .  S
C2195      C2204   1.381       .  A
C2195      C2196   1.385       .  A
C2196      C2197   1.403       .  A
C2196      N2202   1.342       .  A
C2197      C2198   1.401       .  A
C2197      H2206   1.082       .  S
C2198      C2201   1.377       .  A
N2199      C2200   1.355       .  A
N2199      H2209   1.044       .  S
C2200      C2201   1.395       .  A
C2201      H2207   1.082       .  S
N2202      C2203   1.354       .  A
N2202      H2210   1.045       .  S
C2203      C2204   1.395       .  A
C2204      H2208   1.082       .  S
C2211      C2216   1.383       .  A
C2211      C2212   1.402       .  A
C2211      N2217   1.343       .  A
C2212      C2213   1.402       .  A
C2212      H2223   1.083       .  S
C2213      C2222   1.373       .  A
C2213      C2214   1.381       .  A
C2214      C2215   1.403       .  A
C2214      N2220   1.344       .  A
C2215      C2216   1.403       .  A
C2215      H2224   1.082       .  S
C2216      C2219   1.376       .  A
N2217      C2218   1.357       .  A
N2217      H2227   1.044       .  S
C2218      C2219   1.399       .  A
C2219      H2225   1.082       .  S
N2220      C2221   1.358       .  A
N2220      H2228   1.044       .  S
C2221      C2222   1.400       .  A
C2222      H2226   1.080       .  S
C2229      C2234   1.385       .  A
C2229      C2230   1.403       .  A
C2229      N2235   1.342       .  A
C2230      C2231   1.402       .  A
C2230      H2241   1.082       .  S
C2231      C2240   1.378       .  A
C2231      C2232   1.385       .  A
C2232      C2233   1.403       .  A
C2232      N2238   1.342       .  A
C2233      C2234   1.402       .  A
C2233      H2242   1.082       .  S
C2234      C2237   1.378       .  A
N2235      C2236   1.353       .  A
N2235      H2245   1.044       .  S
C2236      C2237   1.394       .  A
C2237      H2243   1.082       .  S
N2238      C2239   1.355       .  A
N2238      H2246   1.045       .  S
C2239      C2240   1.395       .  A
C2240      H2244   1.082       .  S
C2247      C2252   1.383       .  A
C2247      C2248   1.405       .  A
C2247      N2253   1.344       .  A
C2248      C2249   1.405       .  A
C2248      H2259   1.083       .  S
C2249      C2258   1.377       .  A
C2249      C2250   1.382       .  A
C2250      C2251   1.400       .  A
C2250      N2256   1.341       .  A
C2251      C2252   1.400       .  A
C2251      H2260   1.082       .  S
C2252      C2255   1.373       .  A
N2253      C2254   1.359       .  A
N2253      H2263   1.044       .  S
C2254      C2255   1.396       .  A
C2255      H2261   1.082       .  S
N2256      C2257   1.356       .  A
N2256      H2264   1.043       .  S
C2257      C2258   1.402       .  A
C2258      H2262   1.080       .  S
C2265      C2270   1.385       .  A
C2265      C2266   1.404       .  A
C2265      N2271   1.345       .  A
C2266      C2267   1.404       .  A
C2266      H2277   1.082       .  S
C2267      C2276   1.378       .  A
C2267      C2268   1.386       .  A
C2268      C2269   1.401       .  A
C2268      N2274   1.343       .  A
C2269      C2270   1.401       .  A
C2269      H2278   1.082       .  S
C2270      C2273   1.374       .  A
N2271      C2272   1.356       .  A
N2271      H2281   1.045       .  S
C2272      C2273   1.393       .  A
C2273      H2279   1.082       .  S
N2274      C2275   1.353       .  A
N2274      H2282   1.045       .  S
C2275      C2276   1.393       .  A
C2276      H2280   1.082       .  S
C2283      H2284   1.106       .  S
C2283      C2289   1.544       .  S
C2283      C2288   1.534       .  S
C2283      C2287   1.542       .  S
C2285      H2286   1.111       .  S
C2285      C2291   1.538       .  S
C2285      C2290   1.531       .  S
C2285      C2292   1.528       .  S
C2287      C2290   1.376       .  D
C2287      C2583   1.491       .  S
C2288      C2291   1.374       .  D
C2288      C2526   1.479       .  S
C2289      C2292   1.377       .  D
C2289      C2547   1.492       .  S
C2290      C2601   1.472       .  S
C2291      C2508   1.483       .  S
C2292      C2562   1.473       .  S
O2293      C2303   1.278       .  A
O2294      C2304   1.278       .  A
O2294      V2301   1.945       .  S
O2295      C2305   1.281       .  A
O2296      C2306   1.280       .  A
O2296      V2301   1.960       .  S
O2297      C2306   1.233       .  A
O2298      C2305   1.234       .  A
O2298      V2302   1.836       .  S
O2299      C2304   1.260       .  A
O2300      C2303   1.259       .  A
O2300      V2302   1.897       .  S
C2303      C2379   1.512       .  S
C2304      C2354   1.510       .  S
C2305      C2339   1.500       .  S
C2306      C2371   1.497       .  S
O2307      C2317   1.233       .  A
O2308      C2318   1.234       .  A
O2309      C2319   1.259       .  A
O2309      V2315   1.895       .  S
O2310      C2320   1.258       .  A
O2311      C2320   1.278       .  A
O2312      C2319   1.277       .  A
O2313      C2318   1.282       .  A
O2313      V2316   1.962       .  S
O2314      C2317   1.280       .  A
C2317      C2347   1.495       .  S
C2318      C2355   1.500       .  S
C2319      C2338   1.505       .  S
C2320      C2362   1.509       .  S
O2321      C2331   1.279       .  A
O2322      C2332   1.279       .  A
O2322      V2329   1.951       .  S
O2323      C2333   1.281       .  A
O2324      C2334   1.281       .  A
O2325      C2334   1.234       .  A
O2325      V2330   1.838       .  S
O2326      C2333   1.234       .  A
O2327      C2332   1.260       .  A
O2328      C2331   1.259       .  A
C2331      C2370   1.513       .  S
C2332      C2346   1.516       .  S
C2333      C2363   1.502       .  S
C2334      C2378   1.503       .  S
C2335      C2490   1.484       .  S
C2335      C2340   1.405       .  A
C2336      C2565   1.477       .  S
C2336      C2337   1.400       .  A
C2337      C2338   1.398       .  A
C2337      H2342   1.085       .  S
C2339      C2340   1.399       .  A
C2340      H2341   1.083       .  S
C2343      C2472   1.479       .  S
C2343      C2344   1.420       .  A
C2343      C2348   1.400       .  A
C2344      C2511   1.489       .  S
C2344      C2345   1.409       .  A
C2345      C2346   1.400       .  A
C2345      H2350   1.084       .  S
C2346      C2347   1.453       .  A
C2347      C2348   1.398       .  A
C2348      H2349   1.085       .  S
C2351      C2544   1.488       .  S
C2351      C2356   1.406       .  A
C2352      C2457   1.477       .  S
C2352      C2353   1.402       .  A
C2353      C2354   1.399       .  A
C2353      H2358   1.085       .  S
C2355      C2356   1.400       .  A
C2356      H2357   1.083       .  S
C2359      C2529   1.474       .  S
C2359      C2360   1.415       .  A
C2359      C2364   1.403       .  A
C2360      C2439   1.484       .  S
C2360      C2361   1.403       .  A
C2361      C2362   1.397       .  A
C2361      H2366   1.084       .  S
C2362      C2363   1.455       .  A
C2363      C2364   1.401       .  A
C2364      H2365   1.084       .  S
C2367      C2580   1.486       .  S
C2367      C2372   1.404       .  A
C2368      C2421   1.473       .  S
C2368      C2369   1.403       .  A
C2369      C2370   1.399       .  A
C2369      H2374   1.085       .  S
C2371      C2372   1.399       .  A
C2372      H2373   1.084       .  S
C2375      C2598   1.476       .  S
C2375      C2380   1.403       .  A
C2376      C2400   1.490       .  S
C2376      C2377   1.407       .  A
C2377      C2378   1.402       .  A
C2377      H2382   1.083       .  S
C2379      C2380   1.398       .  A
C2380      H2381   1.085       .  S
C2383      H2384   1.109       .  S
C2383      C2389   1.539       .  S
C2383      C2388   1.530       .  S
C2383      C2387   1.535       .  S
C2385      H2386   1.110       .  S
C2385      C2391   1.541       .  S
C2385      C2390   1.537       .  S
C2385      C2392   1.532       .  S
C2387      C2390   1.376       .  D
C2387      C2493   1.485       .  S
C2388      C2391   1.375       .  D
C2388      C2475   1.470       .  S
C2389      C2392   1.375       .  D
C2389      C2403   1.488       .  S
C2390      C2454   1.475       .  S
C2391      C2436   1.489       .  S
C2392      C2418   1.473       .  S
C2393      C2398   1.382       .  A
C2393      C2394   1.403       .  A
C2393      N2399   1.342       .  A
C2394      C2395   1.401       .  A
C2394      H2405   1.082       .  S
C2395      C2404   1.376       .  A
C2395      C2396   1.382       .  A
C2396      C2397   1.404       .  A
C2396      N2402   1.343       .  A
C2397      C2398   1.403       .  A
C2397      H2406   1.082       .  S
C2398      C2401   1.378       .  A
N2399      C2400   1.358       .  A
N2399      H2409   1.044       .  S
C2400      C2401   1.400       .  A
C2401      H2407   1.081       .  S
N2402      C2403   1.359       .  A
N2402      H2410   1.043       .  S
C2403      C2404   1.396       .  A
C2404      H2408   1.082       .  S
C2411      C2416   1.385       .  A
C2411      C2412   1.403       .  A
C2411      N2417   1.342       .  A
C2412      C2413   1.401       .  A
C2412      H2423   1.082       .  S
C2413      C2422   1.377       .  A
C2413      C2414   1.385       .  A
C2414      C2415   1.402       .  A
C2414      N2420   1.342       .  A
C2415      C2416   1.401       .  A
C2415      H2424   1.082       .  S
C2416      C2419   1.377       .  A
N2417      C2418   1.353       .  A
N2417      H2427   1.044       .  S
C2418      C2419   1.394       .  A
C2419      H2425   1.082       .  S
N2420      C2421   1.354       .  A
N2420      H2428   1.045       .  S
C2421      C2422   1.394       .  A
C2422      H2426   1.082       .  S
C2429      C2434   1.382       .  A
C2429      C2430   1.402       .  A
C2429      N2435   1.342       .  A
C2430      C2431   1.402       .  A
C2430      H2441   1.082       .  S
C2431      C2440   1.374       .  A
C2431      C2432   1.384       .  A
C2432      C2433   1.403       .  A
C2432      N2438   1.344       .  A
C2433      C2434   1.403       .  A
C2433      H2442   1.082       .  S
C2434      C2437   1.375       .  A
N2435      C2436   1.357       .  A
N2435      H2445   1.044       .  S
C2436      C2437   1.400       .  A
C2437      H2443   1.080       .  S
N2438      C2439   1.357       .  A
N2438      H2446   1.044       .  S
C2439      C2440   1.397       .  A
C2440      H2444   1.082       .  S
C2447      C2452   1.385       .  A
C2447      C2448   1.403       .  A
C2447      N2453   1.342       .  A
C2448      C2449   1.401       .  A
C2448      H2459   1.082       .  S
C2449      C2458   1.378       .  A
C2449      C2450   1.385       .  A
C2450      C2451   1.404       .  A
C2450      N2456   1.343       .  A
C2451      C2452   1.403       .  A
C2451      H2460   1.082       .  S
C2452      C2455   1.380       .  A
N2453      C2454   1.353       .  A
N2453      H2463   1.045       .  S
C2454      C2455   1.396       .  A
C2455      H2461   1.082       .  S
N2456      C2457   1.356       .  A
N2456      H2464   1.045       .  S
C2457      C2458   1.394       .  A
C2458      H2462   1.082       .  S
C2465      C2470   1.384       .  A
C2465      C2466   1.403       .  A
C2465      N2471   1.342       .  A
C2466      C2467   1.402       .  A
C2466      H2477   1.082       .  S
C2467      C2476   1.379       .  A
C2467      C2468   1.385       .  A
C2468      C2469   1.403       .  A
C2468      N2474   1.342       .  A
C2469      C2470   1.402       .  A
C2469      H2478   1.082       .  S
C2470      C2473   1.379       .  A
N2471      C2472   1.356       .  A
N2471      H2481   1.045       .  S
C2472      C2473   1.396       .  A
C2473      H2479   1.082       .  S
N2474      C2475   1.353       .  A
N2474      H2482   1.045       .  S
C2475      C2476   1.393       .  A
C2476      H2480   1.082       .  S
C2483      C2488   1.383       .  A
C2483      C2484   1.402       .  A
C2483      N2489   1.341       .  A
C2484      C2485   1.401       .  A
C2484      H2495   1.083       .  S
C2485      C2494   1.375       .  A
C2485      C2486   1.383       .  A
C2486      C2487   1.402       .  A
C2486      N2492   1.341       .  A
C2487      C2488   1.400       .  A
C2487      H2496   1.083       .  S
C2488      C2491   1.375       .  A
N2489      C2490   1.357       .  A
N2489      H2499   1.045       .  S
C2490      C2491   1.397       .  A
C2491      H2497   1.082       .  S
N2492      C2493   1.357       .  A
N2492      H2500   1.043       .  S
C2493      C2494   1.397       .  A
C2494      H2498   1.082       .  S
C2501      C2506   1.383       .  A
C2501      C2502   1.406       .  A
C2501      N2507   1.344       .  A
C2502      C2503   1.405       .  A
C2502      H2513   1.082       .  S
C2503      C2512   1.379       .  A
C2503      C2504   1.383       .  A
C2504      C2505   1.400       .  A
C2504      N2510   1.339       .  A
C2505      C2506   1.398       .  A
C2505      H2514   1.082       .  S
C2506      C2509   1.373       .  A
N2507      C2508   1.359       .  A
N2507      H2517   1.044       .  S
C2508      C2509   1.393       .  A
C2509      H2515   1.081       .  S
N2510      C2511   1.356       .  A
N2510      H2518   1.044       .  S
C2511      C2512   1.401       .  A
C2512      H2516   1.082       .  S
C2519      C2524   1.385       .  A
C2519      C2520   1.405       .  A
C2519      N2525   1.344       .  A
C2520      C2521   1.404       .  A
C2520      H2531   1.082       .  S
C2521      C2530   1.381       .  A
C2521      C2522   1.385       .  A
C2522      C2523   1.403       .  A
C2522      N2528   1.342       .  A
C2523      C2524   1.401       .  A
C2523      H2532   1.082       .  S
C2524      C2527   1.377       .  A
N2525      C2526   1.355       .  A
N2525      H2535   1.044       .  S
C2526      C2527   1.395       .  A
C2527      H2533   1.082       .  S
N2528      C2529   1.354       .  A
N2528      H2536   1.045       .  S
C2529      C2530   1.395       .  A
C2530      H2534   1.082       .  S
C2537      C2542   1.383       .  A
C2537      C2538   1.402       .  A
C2537      N2543   1.343       .  A
C2538      C2539   1.402       .  A
C2538      H2549   1.083       .  S
C2539      C2548   1.373       .  A
C2539      C2540   1.381       .  A
C2540      C2541   1.403       .  A
C2540      N2546   1.344       .  A
C2541      C2542   1.403       .  A
C2541      H2550   1.082       .  S
C2542      C2545   1.376       .  A
N2543      C2544   1.357       .  A
N2543      H2553   1.044       .  S
C2544      C2545   1.399       .  A
C2545      H2551   1.082       .  S
N2546      C2547   1.358       .  A
N2546      H2554   1.044       .  S
C2547      C2548   1.400       .  A
C2548      H2552   1.080       .  S
C2555      C2560   1.385       .  A
C2555      C2556   1.403       .  A
C2555      N2561   1.342       .  A
C2556      C2557   1.402       .  A
C2556      H2567   1.082       .  S
C2557      C2566   1.378       .  A
C2557      C2558   1.385       .  A
C2558      C2559   1.403       .  A
C2558      N2564   1.342       .  A
C2559      C2560   1.402       .  A
C2559      H2568   1.082       .  S
C2560      C2563   1.378       .  A
N2561      C2562   1.353       .  A
N2561      H2571   1.044       .  S
C2562      C2563   1.394       .  A
C2563      H2569   1.082       .  S
N2564      C2565   1.355       .  A
N2564      H2572   1.045       .  S
C2565      C2566   1.395       .  A
C2566      H2570   1.082       .  S
C2573      C2578   1.383       .  A
C2573      C2574   1.405       .  A
C2573      N2579   1.344       .  A
C2574      C2575   1.405       .  A
C2574      H2585   1.083       .  S
C2575      C2584   1.377       .  A
C2575      C2576   1.382       .  A
C2576      C2577   1.400       .  A
C2576      N2582   1.341       .  A
C2577      C2578   1.400       .  A
C2577      H2586   1.082       .  S
C2578      C2581   1.373       .  A
N2579      C2580   1.359       .  A
N2579      H2589   1.044       .  S
C2580      C2581   1.396       .  A
C2581      H2587   1.082       .  S
N2582      C2583   1.356       .  A
N2582      H2590   1.043       .  S
C2583      C2584   1.402       .  A
C2584      H2588   1.080       .  S
C2591      C2596   1.385       .  A
C2591      C2592   1.404       .  A
C2591      N2597   1.345       .  A
C2592      C2593   1.404       .  A
C2592      H2603   1.082       .  S
C2593      C2602   1.378       .  A
C2593      C2594   1.386       .  A
C2594      C2595   1.401       .  A
C2594      N2600   1.343       .  A
C2595      C2596   1.401       .  A
C2595      H2604   1.082       .  S
C2596      C2599   1.374       .  A
N2597      C2598   1.356       .  A
N2597      H2607   1.045       .  S
C2598      C2599   1.393       .  A
C2599      H2605   1.082       .  S
N2600      C2601   1.353       .  A
N2600      H2608   1.045       .  S
C2601      C2602   1.393       .  A
C2602      H2606   1.082       .  S
