geometry optimzed in LAMMPS
_audit_creation_date              2020-11-30 
_audit_creation_method            'lammps2cif' 
_symmetry_space_group_name_H-M    'P1' 
_symmetry_Int_Tables_number       1 
_symmetry_cell_setting            triclinic 
loop_ 
_symmetry_equiv_pos_as_xyz 
  x,y,z 
_cell_length_a                    30.0351703 
_cell_length_b                    29.533529611057745 
_cell_length_c                    47.942751270528944 
_cell_angle_alpha                 89.81514704035871 
_cell_angle_beta                  90.75706895033096 
_cell_angle_gamma                 122.14454391265897 
loop_ 
_atom_site_label 
_atom_site_type_symbol 
_atom_site_fract_x 
_atom_site_fract_y 
_atom_site_fract_z 
_atom_site_charge 
O1          O  0.38075466  0.30115804  0.97149441    -0.80400
O2          O  0.37357132  0.09645206  0.02037882    -0.65100
O3          O  0.36155152  0.19745718  0.97557434    -1.11700
C4          C  0.23167306  0.16170745  0.04168513     1.06500
O5          O  0.28849738  0.04263094  0.01716052    -0.78300
O6          O  0.21597444  0.05940893  0.99878135    -0.65900
Ni7        Ni  0.42194274  0.26831342  0.97349526     1.34900
C8          C  0.22735811  0.08098177  0.97502217     0.85200
O9          O  0.42142966  0.15352079  0.97276240    -0.78900
O10         O  0.46925767  0.24265789  0.97336146    -0.89100
C11         C  0.33201821  0.05261389  0.02684168     0.84800
O12         O  0.42780528  0.27706066  0.01313372    -0.67300
O13         O  0.22845097  0.11757003  0.04705901    -0.86600
C14         C  0.43436378  0.24775436  0.02997486     0.85600
C15         C  0.46041077  0.19797156  0.96442840     1.07200
H16         H  0.33304560  0.16751853  0.03732488     0.39000
O17         O  0.31725721  0.14765294  0.02042367    -1.09300
O18         O  0.25859173  0.13136318  0.97206489    -0.65900
Ni19       Ni  0.30478161  0.19130422  0.99623200     1.26300
O20         O  0.42274624  0.20085544  0.02341551    -0.66200
O21         O  0.25015486  0.18754762  0.01903659    -0.78500
C22         C  0.33392673  0.28119702  0.96233462     0.85000
O23         O  0.29636281  0.23583878  0.97043047    -0.65600
Ni24       Ni  0.25851797  0.08042972  0.03170067     1.27400
Ni25       Ni  0.36977356  0.14844907  0.99772124     1.26100
H26         H  0.35053791  0.18351609  0.95697438     0.39500
O27         O  0.45823432  0.21625514  0.52099733    -0.80400
O28         O  0.27167102  0.21978676  0.47172806    -0.65100
O29         O  0.35695213  0.19639551  0.52246859    -1.11700
C30         C  0.29442234  0.04515419  0.46392664     1.06500
O31         O  0.20828913  0.14037635  0.48368443    -0.78300
O32         O  0.21815546  0.06878146  0.51231650    -0.65900
Ni33       Ni  0.42602711  0.25442382  0.53227372     1.34900
C34         C  0.24804207  0.06779734  0.53076093     0.85200
O35         O  0.32574385  0.27124908  0.51798747    -0.78900
O36         O  0.39615397  0.29410393  0.54502816    -0.89100
C37         C  0.22450620  0.18120744  0.46853067     0.84800
O38         O  0.44744317  0.29026188  0.49725160    -0.67300
O39         O  0.25070877  0.04275316  0.46495527    -0.86600
C40         C  0.42305165  0.27968752  0.47414064     0.85600
C41         C  0.35470180  0.29465970  0.53922508     1.07200
H42         H  0.31747379  0.15739324  0.46034838     0.39000
O43         O  0.30314808  0.14823400  0.47890278    -1.09300
O44         O  0.29713854  0.08903557  0.52780742    -0.65900
Ni45       Ni  0.34885289  0.13691595  0.50153041     1.26300
O46         O  0.37293161  0.25185038  0.47248521    -0.66200
O47         O  0.33619092  0.07813322  0.47799907    -0.78500
C48         C  0.44428829  0.17110878  0.53120027     0.85000
O49         O  0.39860155  0.13083459  0.52522141    -0.65600
Ni50       Ni  0.23087713  0.09249191  0.47481629     1.27400
Ni51       Ni  0.31544469  0.21070553  0.49766979     1.26100
H52         H  0.33800818  0.18348637  0.53973349     0.39500
O53         O  0.41997963  0.03903026  0.72275997    -0.74000
O54         O  0.34036991  0.43063380  0.77578111    -0.74000
O55         O  0.34261417  0.43664432  0.71978386    -0.74100
O56         O  0.41813653  0.03351031  0.78008010    -0.74100
O57         O  0.36142698  0.06041726  0.77970105    -0.74000
O58         O  0.28296562  0.45981068  0.72033006    -0.74000
O59         O  0.28280227  0.45647161  0.77777955    -0.74000
O60         O  0.36062774  0.06245355  0.72194849    -0.74100
Ni61       Ni  0.38247851  0.98440496  0.74964355     1.25400
Ni62       Ni  0.31981025  0.01077268  0.75006758     1.25400
C63         C  0.40082620  0.06461336  0.71158749     0.88200
C64         C  0.29953972  0.42675534  0.78611686     0.88100
C65         C  0.30153925  0.43361509  0.70958752     0.88200
C66         C  0.40120503  0.06136585  0.79060860     0.88300
O67         O  0.14524362  0.08941763  0.72317705    -0.74000
O68         O  0.09827465  0.14456883  0.77879896    -0.74000
O69         O  0.09629020  0.14246010  0.72135223    -0.74100
O70         O  0.14832928  0.09263096  0.77994127    -0.74100
O71         O  0.22573272  0.17009956  0.77895815    -0.74000
O72         O  0.17332180  0.22025653  0.72062650    -0.74000
O73         O  0.17539408  0.22219677  0.77892492    -0.74000
O74         O  0.22232950  0.16678713  0.72102088    -0.74100
Ni75       Ni  0.11937571  0.11471481  0.75083079     1.25400
Ni76       Ni  0.20204748  0.19776007  0.74985103     1.25400
C77         C  0.18920126  0.11990721  0.71130523     0.88200
C78         C  0.13052980  0.19004215  0.78991594     0.88100
C79         C  0.12751095  0.18806122  0.71013225     0.88200
C80         C  0.19456202  0.12447370  0.79005368     0.88300
O81         O  0.08284862  0.44352386  0.77849396    -0.74000
O82         O  0.48268881  0.41030323  0.72137226    -0.74000
O83         O  0.48128299  0.40952650  0.77769329    -0.74100
O84         O  0.08425545  0.44252432  0.72206871    -0.74100
O85         O  0.06365614  0.35786016  0.72293025    -0.74000
O86         O  0.45899888  0.32453760  0.77750413    -0.74000
O87         O  0.46155705  0.32566346  0.72063188    -0.74000
O88         O  0.06041549  0.35843992  0.78108906    -0.74100
Ni89       Ni  0.03368799  0.42939102  0.74982775     1.25400
Ni90       Ni  0.01071611  0.33850838  0.75043482     1.25400
C91         C  0.08289372  0.40579882  0.79144711     0.88200
C92         C  0.45637937  0.36329144  0.71099821     0.88100
C93         C  0.45478352  0.36206465  0.78766692     0.88200
C94         C  0.08866889  0.40477968  0.71237415     0.88300
C95         C  0.03415690  0.19582892  0.55244102     0.02700
C96         C  0.47790529  0.16874217  0.55368470     0.02700
C97         C  0.45326815  0.14808312  0.57945997    -0.17800
C98         C  0.48259067  0.15758935  0.60414674     0.02700
C99         C  0.03808218  0.18953232  0.60364732     0.02700
C100        C  0.06297458  0.20618080  0.57775739    -0.17800
H101        H  0.10556588  0.22838505  0.57757598     0.04800
H102        H  0.41071525  0.12607189  0.58060331     0.04800
C103        C  0.22412874  0.03904576  0.55662145     0.02700
C104        C  0.19412609  0.48283324  0.55684754     0.02700
C105        C  0.17468172  0.45591632  0.58216544    -0.17800
C106        C  0.18300931  0.48396600  0.60712621     0.02700
C107        C  0.20969824  0.04065215  0.60634403     0.02700
C108        C  0.23100179  0.06775100  0.58124182    -0.17800
H109        H  0.25169933  0.11103412  0.58071374     0.04800
H110        H  0.15551941  0.41274434  0.58267401     0.04800
C111        C  0.32514624  0.30679314  0.93823588     0.02700
C112        C  0.29020659  0.32501708  0.93787031     0.02700
C113        C  0.27020182  0.32975886  0.91215483    -0.17800
C114        C  0.29290063  0.32957707  0.88713419     0.02700
C115        C  0.33484201  0.32089992  0.88777913     0.02700
C116        C  0.34821631  0.30627984  0.91295004    -0.17800
H117        H  0.37756881  0.29551433  0.91292466     0.04800
H118        H  0.23949746  0.33869432  0.91178700     0.04800
C119        C  0.33638482  0.31763918  0.56056481     0.02700
C120        C  0.29020752  0.31974485  0.55788139     0.02700
C121        C  0.27073334  0.33221875  0.58136524    -0.17800
C122        C  0.29447084  0.34003873  0.60769355     0.02700
C123        C  0.33943355  0.33684268  0.61032565     0.02700
C124        C  0.36044950  0.32733231  0.58702545    -0.17800
H125        H  0.39502710  0.32507711  0.59021996     0.04800
H126        H  0.23671618  0.33576593  0.57914093     0.04800
C127        C  0.20472869  0.04629961  0.94954389     0.02700
C128        C  0.17594764  0.48896250  0.95008216     0.02700
C129        C  0.15562109  0.46038830  0.92506855    -0.17800
C130        C  0.16619498  0.48631167  0.89949880     0.02700
C131        C  0.19784505  0.04283810  0.89819823     0.02700
C132        C  0.21598501  0.07184308  0.92332337    -0.17800
H133        H  0.24016117  0.11504545  0.92229455     0.04800
H134        H  0.13280688  0.41697165  0.92525811     0.04800
C135        C  0.49464169  0.19898092  0.94234015     0.02700
C136        C  0.05007087  0.23290929  0.94401350     0.02700
C137        C  0.08003441  0.23873586  0.92027132    -0.17800
C138        C  0.05527286  0.21176581  0.89507076     0.02700
C139        C  0.49973150  0.17827266  0.89354103     0.02700
C140        C  0.47028623  0.17183423  0.91727899    -0.17800
H141        H  0.42774130  0.14686748  0.91590019     0.04800
H142        H  0.12258718  0.26319564  0.92157187     0.04800
O143        O  0.27934189  0.35343650  0.51538795    -0.80400
O144        O  0.09109719  0.36580635  0.47305764    -0.65100
O145        O  0.18592247  0.34808706  0.51960215    -1.11700
C146        C  0.13110155  0.19936254  0.46088966     1.06500
O147        O  0.03042735  0.28104228  0.47892083    -0.78300
O148        O  0.04037358  0.20590149  0.50279777    -0.65900
Ni149      Ni  0.25843736  0.40278216  0.52337682     1.34900
C150        C  0.06474227  0.21653268  0.52594804     0.85200
O151        O  0.15443134  0.41921890  0.51980870    -0.78900
O152        O  0.23985099  0.45354638  0.53252388    -0.89100
C153        C  0.04449694  0.32595947  0.46826663     0.84800
O154        O  0.27187605  0.42557846  0.48565507    -0.67300
O155        O  0.09022899  0.20085946  0.45480091    -0.86600
C156        C  0.24292341  0.42735467  0.46687591     0.85600
C157        C  0.19628308  0.45128146  0.53401176     1.07200
H158        H  0.14991830  0.31071064  0.45919968     0.39000
O159        O  0.13119313  0.29890398  0.47657737    -1.09300
O160        O  0.11480366  0.24497598  0.52755873    -0.65900
Ni161      Ni  0.17193269  0.28424745  0.50183369     1.26300
O162        O  0.19364227  0.40684457  0.46969057    -0.66200
O163        O  0.15971184  0.22213516  0.48234252    -0.78500
C164        C  0.26240622  0.31356171  0.53132562     0.85000
O165        O  0.21514817  0.27517405  0.52821437    -0.65600
Ni166      Ni  0.06138918  0.24149992  0.46759315     1.27400
Ni167      Ni  0.14102828  0.35987034  0.49661673     1.26100
H168        H  0.17168938  0.33998456  0.53819353     0.39500
O169        O  0.21940621  0.46706432  0.98379535    -0.80400
O170        O  0.21418567  0.27579173  0.03239309    -0.65100
O171        O  0.19278280  0.36210794  0.98121420    -1.11700
C172        C  0.04896860  0.31079461  0.03558270     1.06500
O173        O  0.12979576  0.20982523  0.03270224    -0.78300
O174        O  0.08472809  0.23137634  0.98852721    -0.65900
Ni175      Ni  0.25077365  0.42967244  0.97011989     1.34900
C176        C  0.07648274  0.25862390  0.97101822     0.85200
O177        O  0.26069314  0.32371425  0.98407777    -0.78900
O178        O  0.28205844  0.39318386  0.95562187    -0.89100
C179        C  0.17724906  0.23059556  0.04103608     0.84800
O180        O  0.29317619  0.45139160  0.00311088    -0.67300
O181        O  0.04089576  0.26713794  0.02561416    -0.86600
C182        C  0.28443826  0.43003333  0.02691094     0.85600
C183        C  0.27907658  0.34929498  0.96141397     1.07200
H184        H  0.15864810  0.32787248  0.04464198     0.39000
O185        O  0.14809121  0.31311502  0.02603234    -1.09300
O186        O  0.08696166  0.30566300  0.97684028    -0.65900
Ni187      Ni  0.13893867  0.36045220  0.00274083     1.26300
O188        O  0.25239113  0.37988269  0.03035583    -0.66200
O189        O  0.08674553  0.35569800  0.02713757    -0.78500
C190        C  0.17582495  0.45638849  0.97370227     0.85000
O191        O  0.13471001  0.41135043  0.97923563    -0.65600
Ni192      Ni  0.08822817  0.24190051  0.02810211     1.27400
Ni193      Ni  0.20561523  0.31960722  0.00618793     1.26100
H194        H  0.17777123  0.34179287  0.96423851     0.39500
O195        O  0.43391842  0.15459449  0.22035667    -0.74000
O196        O  0.03498905  0.18056851  0.27787974    -0.74000
O197        O  0.03561046  0.18585540  0.22098353    -0.74100
O198        O  0.43393896  0.15029949  0.27804147    -0.74100
O199        O  0.41046186  0.06481414  0.27555895    -0.74000
O200        O  0.01164280  0.10047557  0.21852187    -0.74000
O201        O  0.01157217  0.09535364  0.27513994    -0.74000
O202        O  0.40973471  0.06884810  0.21901800    -0.74100
Ni203      Ni  0.48520896  0.17088916  0.24937144     1.25400
Ni204      Ni  0.45993274  0.07938920  0.24694612     1.25400
C205        C  0.40746513  0.10789040  0.20927917     0.88200
C206        C  0.03859319  0.14153259  0.28661452     0.88100
C207        C  0.03976407  0.14886194  0.20992083     0.88200
C208        C  0.40811861  0.10234084  0.28727877     0.88300
O209        O  0.29418461  0.34151735  0.27687523    -0.74000
O210        O  0.32541408  0.27241152  0.21945794    -0.74000
O211        O  0.32137461  0.26916267  0.27732649    -0.74100
O212        O  0.29864837  0.34521747  0.21925609    -0.74100
O213        O  0.38316882  0.41011722  0.22230795    -0.74000
O214        O  0.40653641  0.33341450  0.27882758    -0.74000
O215        O  0.41020202  0.33726462  0.22200364    -0.74000
O216        O  0.37902590  0.40561056  0.27976152    -0.74100
Ni217      Ni  0.30685638  0.30466359  0.24810617     1.25400
Ni218      Ni  0.39764640  0.37394233  0.25076986     1.25400
C219        C  0.33209253  0.38294796  0.28915245     0.88200
C220        C  0.37241364  0.29488010  0.21042344     0.88100
C221        C  0.36710662  0.29096121  0.28878076     0.88200
C222        C  0.33819416  0.38883624  0.21007523     0.88300
C223        C  0.29777097  0.01362936  0.44137208     0.02700
C224        C  0.26905213  0.45716812  0.44119394     0.02700
C225        C  0.26959166  0.43008278  0.41702551    -0.17800
C226        C  0.29513218  0.45883339  0.39263814     0.02700
C227        C  0.31733287  0.01482263  0.39211010     0.02700
C228        C  0.32054127  0.04160276  0.41671592    -0.17800
H229        H  0.33834803  0.08462885  0.41625327     0.04800
H230        H  0.25127361  0.38705248  0.41739675     0.04800
O231        O  0.13611586  0.44044724  0.28105353    -0.74000
O232        O  0.21803123  0.04535584  0.22532763    -0.74000
O233        O  0.21398020  0.04329967  0.28231426    -0.74100
O234        O  0.14016490  0.44155722  0.22335622    -0.74100
O235        O  0.08167313  0.46595496  0.22134101    -0.74000
O236        O  0.15470325  0.06699498  0.28002222    -0.74000
O237        O  0.15878751  0.06915171  0.22434853    -0.74000
O238        O  0.07724767  0.46426607  0.27828728    -0.74100
Ni239      Ni  0.17915696  0.49158939  0.25302115     1.25400
Ni240      Ni  0.11589386  0.51712901  0.25088673     1.25400
C241        C  0.09493994  0.43806421  0.29020753     0.88200
C242        C  0.20120289  0.07421001  0.21572186     0.88100
C243        C  0.19542793  0.07073149  0.29122177     0.88200
C244        C  0.10026220  0.43900961  0.21161295     0.88300
C245        C  0.33212898  0.02211981  0.05126827     0.02700
C246        C  0.31044566  0.46560093  0.05185000     0.02700
C247        C  0.30935860  0.44207872  0.07776940    -0.17800
C248        C  0.32513197  0.47216723  0.10268347     0.02700
C249        C  0.34031148  0.02647386  0.10200001     0.02700
C250        C  0.34598233  0.05103869  0.07634227    -0.17800
H251        H  0.35806599  0.09283614  0.07602131     0.04800
H252        H  0.29570820  0.39996513  0.07870980     0.04800
C253        C  0.14951308  0.17643425  0.43960127     0.02700
C254        C  0.19661425  0.17596243  0.44216096     0.02700
C255        C  0.21746446  0.16602984  0.41854145    -0.17800
C256        C  0.19396651  0.15842567  0.39226324     0.02700
C257        C  0.14741464  0.15887065  0.38961482     0.02700
C258        C  0.12524964  0.16633268  0.41311882    -0.17800
H259        H  0.08992625  0.16728106  0.41004794     0.04800
H260        H  0.25268169  0.16450671  0.42059281     0.04800
C261        C  0.21990439  0.18530941  0.06559044     0.02700
C262        C  0.18724568  0.20640451  0.06532880     0.02700
C263        C  0.16525509  0.20883405  0.09065652    -0.17800
C264        C  0.17604587  0.19194655  0.11584589     0.02700
C265        C  0.21538600  0.17928544  0.11653028     0.02700
C266        C  0.23812609  0.17857608  0.09148442    -0.17800
H267        H  0.26786506  0.16832582  0.09191564     0.04800
H268        H  0.13765575  0.22192160  0.09058257     0.04800
C269        C  0.45355832  0.29955877  0.44767099     0.02700
C270        C  0.00990353  0.32816358  0.44628895     0.02700
C271        C  0.03385879  0.34968265  0.42047941    -0.17800
C272        C  0.00402384  0.33771494  0.39575777     0.02700
C273        C  0.44887882  0.30181438  0.39650052     0.02700
C274        C  0.42435821  0.28599636  0.42239834    -0.17800
H275        H  0.38180677  0.26113815  0.42259547     0.04800
H276        H  0.07638890  0.37387714  0.41931909     0.04800
C277        C  0.01512617  0.30761088  0.05843019     0.02700
C278        C  0.46041536  0.27079197  0.05713499     0.02700
C279        C  0.43080509  0.25754356  0.08162566    -0.17800
C280        C  0.45494583  0.28210207  0.10730073     0.02700
C281        C  0.00949478  0.32212929  0.10804735     0.02700
C282        C  0.03904203  0.33364566  0.08371814    -0.17800
H283        H  0.08114923  0.36215610  0.08465516     0.04800
H284        H  0.38888434  0.22830422  0.08067883     0.04800
C285        C  0.09058632  0.38320079  0.33155278    -0.20800
C286        C  0.06993387  0.40902856  0.31635256    -0.08900
C287        C  0.02926316  0.41278445  0.32824630     0.30000
C288        C  0.01056951  0.39197557  0.35457331    -0.20800
C289        C  0.02999938  0.36493595  0.36936989    -0.08900
C290        C  0.07063743  0.36103712  0.35780572     0.30000
F291        F  0.08987598  0.33454773  0.37146113    -0.19400
H292        H  0.12242181  0.38045068  0.32323154     0.18300
H293        H  0.47966003  0.39590976  0.36326304     0.18300
F294        F  0.00773732  0.43732035  0.31479642    -0.19400
C295        C  0.07420406  0.34983003  0.14808286    -0.20800
C296        C  0.03546479  0.35408499  0.13377137    -0.08900
C297        C  0.01886769  0.38643712  0.14503106     0.30000
C298        C  0.03880865  0.41209210  0.17067921    -0.20800
C299        C  0.07695304  0.40741652  0.18547538    -0.08900
C300        C  0.09506490  0.37641719  0.17365095     0.30000
F301        F  0.13293992  0.37185008  0.18661808    -0.19400
H302        H  0.08756411  0.32512452  0.13967406     0.18300
H303        H  0.02484841  0.43653886  0.17869256     0.18300
F304        F  0.48308874  0.39309581  0.13114271    -0.19400
C305        C  0.21483479  0.07647702  0.34136274    -0.20800
C306        C  0.21694898  0.10282706  0.31659943    -0.08900
C307        C  0.22535071  0.15422077  0.31778585     0.30000
C308        C  0.22621008  0.17651930  0.34351075    -0.20800
C309        C  0.21584256  0.14646277  0.36797821    -0.08900
C310        C  0.21422928  0.09808390  0.36706863     0.30000
F311        F  0.20443318  0.06821180  0.39041571    -0.19400
H312        H  0.20644736  0.03607767  0.34066948     0.18300
H313        H  0.22804219  0.21411748  0.34400183     0.18300
F314        F  0.22627353  0.17982507  0.29405377    -0.19400
C315        C  0.23456771  0.18620142  0.16794444    -0.20800
C316        C  0.22873272  0.16050317  0.14233905    -0.08900
C317        C  0.22908227  0.11282661  0.14213708     0.30000
C318        C  0.22922929  0.08878620  0.16717230    -0.20800
C319        C  0.22691714  0.11063405  0.19250277    -0.08900
C320        C  0.23218354  0.16073940  0.19290916     0.30000
F321        F  0.22862251  0.18174005  0.21730877    -0.19400
H322        H  0.23598681  0.22358998  0.16866523     0.18300
H323        H  0.22380475  0.04946752  0.16658969     0.18300
F324        F  0.22243076  0.08565811  0.11808989    -0.19400
C325        C  0.41107665  0.25967865  0.32097634    -0.20800
C326        C  0.37373461  0.27366554  0.31645911    -0.08900
C327        C  0.35379930  0.28642001  0.33946574     0.30000
C328        C  0.37525888  0.29112311  0.36613031    -0.20800
C329        C  0.41647140  0.28246202  0.37027963    -0.08900
C330        C  0.43118790  0.26243072  0.34788060     0.30000
F331        F  0.96835980  0.25005176  0.35160613    -0.19400
H332        H  0.42709034  0.25003941  0.30348511     0.18300
H333        H  0.36287201  0.30610175  0.38299447     0.18300
F334        F  0.31834581  0.30106706  0.33560227    -0.19400
C335        C  0.36111048  0.28040058  0.15940150    -0.20800
C336        C  0.38275087  0.27556145  0.18453318    -0.08900
C337        C  0.42122780  0.26247147  0.18373640     0.30000
C338        C  0.44026039  0.25795711  0.15807593    -0.20800
C339        C  0.42286583  0.26885768  0.13297270    -0.08900
C340        C  0.38093592  0.27711545  0.13375515     0.30000
F341        F  0.36345356  0.28831119  0.11005660    -0.19400
H342        H  0.33220096  0.29169060  0.15967501     0.18300
H343        H  0.47220228  0.25103234  0.15792273     0.18300
F344        F  0.44291680  0.25786077  0.20774356    -0.19400
C345        C  0.35456992  0.45197976  0.35947023    -0.20800
C346        C  0.30300218  0.43249668  0.36828449    -0.08900
C347        C  0.26081517  0.39567472  0.35114684     0.30000
C348        C  0.27040081  0.38062508  0.32519740    -0.20800
C349        C  0.32218066  0.40206698  0.31578037    -0.08900
C350        C  0.36425939  0.43752753  0.33356463     0.30000
F351        F  0.41499667  0.45828826  0.32614688    -0.19400
H352        H  0.38768632  0.48053399  0.37231334     0.18300
H353        H  0.23713956  0.35256948  0.31230716     0.18300
F354        F  0.21053660  0.37713758  0.35860612    -0.19400
C355        C  0.37551711  0.47321629  0.14463755    -0.20800
C356        C  0.32803887  0.44789582  0.12936127    -0.08900
C357        C  0.28305138  0.40432325  0.14128215     0.30000
C358        C  0.28584902  0.38660566  0.16807161    -0.20800
C359        C  0.33343682  0.41232173  0.18353106    -0.08900
C360        C  0.37817243  0.45654172  0.17151772     0.30000
F361        F  0.42493577  0.48361631  0.18547194    -0.19400
H362        H  0.41050524  0.00728200  0.13593478     0.18300
H363        H  0.25082087  0.35233057  0.17657069     0.18300
F364        F  0.23617629  0.38012651  0.12742151    -0.19400
C365        C  0.38936344  0.08893696  0.36430783    -0.20800
C366        C  0.33711050  0.04576143  0.36581005    -0.08900
C367        C  0.30550780  0.02898365  0.34143877     0.30000
C368        C  0.32765897  0.05050523  0.31557839    -0.20800
C369        C  0.38087720  0.09077272  0.31390971    -0.08900
C370        C  0.41113670  0.11150621  0.33852175     0.30000
F371        F  0.46321705  0.14953240  0.33730468    -0.19400
H372        H  0.41430383  0.10262558  0.38280367     0.18300
H373        H  0.30403165  0.03393786  0.29676089     0.18300
F374        F  0.25405544  0.48932008  0.34245984    -0.19400
C375        C  0.41350490  0.12723376  0.15949462    -0.20800
C376        C  0.38119257  0.09997066  0.18220447    -0.08900
C377        C  0.33062773  0.05515393  0.17732311     0.30000
C378        C  0.31456127  0.03559236  0.15018861    -0.20800
C379        C  0.35026675  0.05790462  0.12808108    -0.08900
C380        C  0.39860834  0.10613599  0.13258081     0.30000
F381        F  0.43410739  0.12919576  0.11181797    -0.19400
H382        H  0.45325463  0.16082375  0.16303362     0.18300
H383        H  0.27636001  0.99946437  0.14692841     0.18300
F384        F  0.29910930  0.02719633  0.19895381    -0.19400
C385        C  0.07126720  0.10352266  0.32199414    -0.20800
C386        C  0.07147408  0.14819820  0.31138334    -0.08900
C387        C  0.09877489  0.19683938  0.32631780     0.30000
C388        C  0.12373890  0.19985077  0.35161171    -0.20800
C389        C  0.12215620  0.15481206  0.36235224    -0.08900
C390        C  0.09617233  0.10667044  0.34731433     0.30000
F391        F  0.09377703  0.06247580  0.35746282    -0.19400
H392        H  0.05042792  0.06545476  0.31113692     0.18300
H393        H  0.14407599  0.23733639  0.36304206     0.18300
F394        F  0.10024310  0.24108845  0.31703949    -0.19400
C395        C  0.07767640  0.11972489  0.17325483    -0.20800
C396        C  0.07622421  0.16142515  0.18636644    -0.08900
C397        C  0.10795946  0.21385265  0.17584110     0.30000
C398        C  0.14023358  0.22377978  0.15282275    -0.20800
C399        C  0.14162318  0.18187950  0.14004183    -0.08900
C400        C  0.10965107  0.12968022  0.15029996     0.30000
F401        F  0.10886382  0.08806395  0.13782136    -0.19400
H402        H  0.05343300  0.07893497  0.18051134     0.18300
H403        H  0.16451639  0.26423014  0.14509032     0.18300
F404        F  0.10777328  0.25551304  0.18758150    -0.19400
C405        C  0.39569386  0.29972987  0.82458297    -0.20800
C406        C  0.42196454  0.35108094  0.81256570    -0.08900
C407        C  0.42078978  0.39254623  0.82625491     0.30000
C408        C  0.39424852  0.38269681  0.85132575    -0.20800
C409        C  0.36742813  0.33130094  0.86293475    -0.08900
C410        C  0.36860714  0.28986357  0.84956566     0.30000
F411        F  0.34238615  0.23969830  0.86026587    -0.19400
H412        H  0.39635546  0.26712260  0.81476617     0.18300
H413        H  0.39362461  0.41505015  0.86150966     0.18300
F414        F  0.44576457  0.44280790  0.81572189    -0.19400
C415        C  0.09913759  0.46078536  0.86324505    -0.20800
C416        C  0.13815294  0.45426795  0.87464750    -0.08900
C417        C  0.15414512  0.42377284  0.86035440     0.30000
C418        C  0.13513167  0.40526025  0.83314962    -0.20800
C419        C  0.09969771  0.41673825  0.82078953    -0.08900
C420        C  0.08019000  0.44248876  0.83661812     0.30000
F421        F  0.04443707  0.95260304  0.82578809    -0.19400
H422        H  0.08590766  0.98338985  0.87432012     0.18300
H423        H  0.14989460  0.38478053  0.82141654     0.18300
F424        F  0.19083701  0.41576153  0.87186295    -0.19400
C425        C  0.08756444  0.39134189  0.66181715    -0.20800
C426        C  0.11720625  0.41420221  0.68632045    -0.08900
C427        C  0.17064287  0.45378917  0.68452461     0.30000
C428        C  0.19341761  0.47203674  0.65838417    -0.20800
C429        C  0.16235915  0.45384384  0.63381266    -0.08900
C430        C  0.10954416  0.41145847  0.63573362     0.30000
F431        F  0.07770009  0.39315405  0.61279980    -0.19400
H432        H  0.04589997  0.36137996  0.66297740     0.18300
H433        H  0.23434108  0.00385411  0.65746065     0.18300
F434        F  0.19969449  0.97719465  0.70797969    -0.19400
C435        C  0.42497263  0.39913489  0.67400475    -0.20800
C436        C  0.42195830  0.35448016  0.68673491    -0.08900
C437        C  0.38904175  0.30347958  0.67482515     0.30000
C438        C  0.36143230  0.29794501  0.65012668    -0.20800
C439        C  0.36584004  0.34288543  0.63729171    -0.08900
C440        C  0.39744932  0.39348009  0.64939787     0.30000
F441        F  0.40321834  0.43755113  0.63685005    -0.19400
H442        H  0.45008684  0.43901402  0.68254049     0.18300
H443        H  0.33691189  0.25865566  0.64079005     0.18300
F444        F  0.38409995  0.25924885  0.68666750    -0.19400
C445        C  0.08362024  0.16580238  0.86395206    -0.20800
C446        C  0.08653643  0.21317346  0.87102602    -0.10700
C447        C  0.10929031  0.25616075  0.85218338     0.30000
C448        C  0.12599575  0.25028207  0.82585249    -0.20800
C449        C  0.11761996  0.20055123  0.81785066    -0.08900
C450        C  0.09695039  0.15867382  0.83741165     0.30000
F451        F  0.08878131  0.11011274  0.83075406    -0.19400
H452        H  0.06666706  0.13246137  0.87830832     0.18300
H453        H  0.14263695  0.28329330  0.81130733     0.18300
F454        F  0.61219627  0.30225855  0.85863775    -0.19400
C455        C  0.20177910  0.13460579  0.84111679    -0.20800
C456        C  0.20844784  0.11162652  0.81726535    -0.08900
C457        C  0.22079983  0.07232593  0.82041609     0.30000
C458        C  0.22312313  0.05421460  0.84718450    -0.20800
C459        C  0.20902014  0.07189202  0.87090613    -0.08900
C460        C  0.20075270  0.11430912  0.86762433     0.30000
F461        F  0.18777835  0.13365513  0.88961630    -0.19400
H462        H  0.19363911  0.16603062  0.83902827     0.18300
H463        H  0.23311362  0.52416400  0.84920297     0.18300
F464        F  0.22912325  0.05055013  0.79772978    -0.19400
C465        C  0.24768019  0.12188463  0.67325664    -0.20800
C466        C  0.19733169  0.10211608  0.68415211    -0.08900
C467        C  0.15270597  0.06854277  0.66733075     0.30000
C468        C  0.15831310  0.05434597  0.64074353    -0.20800
C469        C  0.20795676  0.07000768  0.63076695    -0.08900
C470        C  0.25306736  0.10529389  0.64672473     0.30000
F471        F  0.30165415  0.12093530  0.63740834    -0.19400
H472        H  0.28249691  0.14878519  0.68551283     0.18300
H473        H  0.12328683  0.52778107  0.62849597     0.18300
F474        F  0.10320771  0.05082254  0.67604104    -0.19400
C475        C  0.10584027  0.18492646  0.63235186    -0.20800
C476        C  0.07011495  0.20153135  0.62995734    -0.08900
C477        C  0.06072838  0.22320611  0.65380571     0.30000
C478        C  0.08074632  0.22087912  0.68011345    -0.20800
C479        C  0.11291187  0.19992737  0.68265475    -0.08900
C480        C  0.12758845  0.18492595  0.65830972     0.30000
F481        F  0.16149962  0.16809851  0.65975844    -0.19400
H482        H  0.11477122  0.16918409  0.61436150     0.18300
H483        H  0.07012361  0.23413285  0.69847806     0.18300
F484        F  0.53063733  0.24474979  0.65180056    -0.19400
C485        C  0.43795473  0.14461669  0.82033001    -0.20800
C486        C  0.42603238  0.09202891  0.81678150    -0.08900
C487        C  0.43617921  0.06750389  0.83910763     0.30000
C488        C  0.45815661  0.09509052  0.86422694    -0.20800
C489        C  0.47195510  0.14824458  0.86745210    -0.08900
C490        C  0.46144323  0.17283860  0.84530160     0.30000
F491        F  0.47390365  0.22406599  0.84784393    -0.19400
H492        H  0.42996622  0.16413069  0.80358832     0.18300
H493        H  0.96558155  0.07530705  0.88106156     0.18300
F494        F  0.42332760  0.01611148  0.83694021    -0.19400
C495        C  0.27666087  0.41631792  0.83537047    -0.20800
C496        C  0.27657094  0.39214258  0.81032805    -0.08900
C497        C  0.27068687  0.34168987  0.81079254     0.30000
C498        C  0.26909094  0.31780925  0.83623570    -0.20800
C499        C  0.27733225  0.34590587  0.86129444    -0.08900
C500        C  0.27848586  0.39423431  0.86074960     0.30000
F501        F  0.28786821  0.42347812  0.88434035    -0.19400
H502        H  0.28243848  0.45581588  0.83530682     0.18300
H503        H  0.26696687  0.28002915  0.83625756     0.18300
F504        F  0.27219846  0.31840751  0.78676315    -0.19400
C505        C  0.44848804  0.07310796  0.66833399    -0.20800
C506        C  0.42185379  0.09088789  0.68444041    -0.08900
C507        C  0.41023609  0.12725780  0.67256220     0.30000
C508        C  0.42728165  0.14696101  0.64555526    -0.20800
C509        C  0.45561715  0.13030243  0.63017827    -0.08900
C510        C  0.46448148  0.09192019  0.64144451     0.30000
F511        F  0.98983500  0.07352604  0.62652642    -0.19400
H512        H  0.45608035  0.04343681  0.67629071     0.18300
H513        H  0.42025979  0.17669060  0.63707181     0.18300
F514        F  0.38336392  0.14436238  0.68708541    -0.19400
C515        C  0.28598489  0.40835453  0.63287454    -0.20800
C516        C  0.27579385  0.35619479  0.63197446    -0.08900
C517        C  0.26081123  0.32563876  0.65655753     0.30000
C518        C  0.26345139  0.34954741  0.68217511    -0.20800
C519        C  0.27958714  0.40361611  0.68340905    -0.08900
C520        C  0.28837603  0.43219877  0.65847218     0.30000
F521        F  0.30698132  0.48531870  0.65917674    -0.19400
H522        H  0.29819446  0.43266265  0.61422079     0.18300
H523        H  0.25732070  0.32724014  0.70122503     0.18300
F524        F  0.24999176  0.27481886  0.65618544    -0.19400
O525        O  0.38075495  0.80115787  0.97149501    -0.80400
O526        O  0.37357040  0.59645107  0.02037932    -0.65100
O527        O  0.36155177  0.69745699  0.97557472    -1.11700
C528        C  0.23167361  0.66170797  0.04168554     1.06500
O529        O  0.28849655  0.54263103  0.01716010    -0.78300
O530        O  0.21597340  0.55940931  0.99878168    -0.65900
Ni531      Ni  0.42194296  0.76831318  0.97349560     1.34900
C532        C  0.22735801  0.58098159  0.97502238     0.85200
O533        O  0.42142974  0.65352033  0.97276297    -0.78900
O534        O  0.46925773  0.74265750  0.97336169    -0.89100
C535        C  0.33201670  0.55261299  0.02684175     0.84800
O536        O  0.42780581  0.77706055  0.01313399    -0.67300
O537        O  0.22845146  0.61757056  0.04705962    -0.86600
C538        C  0.43436423  0.74775428  0.02997518     0.85600
C539        C  0.46041071  0.69797104  0.96442876     1.07200
H540        H  0.33304535  0.66751840  0.03732515     0.39000
O541        O  0.31725701  0.64765279  0.02042394    -1.09300
O542        O  0.25859218  0.63136288  0.97206495    -0.65900
Ni543      Ni  0.30478162  0.69130401  0.99623217     1.26300
O544        O  0.42274610  0.70085504  0.02341604    -0.66200
O545        O  0.25015459  0.68754731  0.01903667    -0.78500
C546        C  0.33392724  0.78119705  0.96233494     0.85000
O547        O  0.29636312  0.73583866  0.97043052    -0.65600
Ni548      Ni  0.25851755  0.58042971  0.03170082     1.27400
Ni549      Ni  0.36977346  0.64844870  0.99772169     1.26100
H550        H  0.35053829  0.68351587  0.95697470     0.39500
O551        O  0.45823420  0.71625552  0.52099783    -0.80400
O552        O  0.27166950  0.71978537  0.47172844    -0.65100
O553        O  0.35695168  0.69639552  0.52246891    -1.11700
C554        C  0.29442262  0.54515388  0.46392724     1.06500
O555        O  0.20828840  0.64037488  0.48368521    -0.78300
O556        O  0.21815487  0.56877959  0.51231677    -0.65900
Ni557      Ni  0.42602659  0.75442405  0.53227390     1.34900
C558        C  0.24804168  0.56779642  0.53076142     0.85200
O559        O  0.32574262  0.77124849  0.51798759    -0.78900
O560        O  0.39615333  0.79410425  0.54502798    -0.89100
C561        C  0.22450479  0.68120568  0.46853130     0.84800
O562        O  0.44744229  0.79026144  0.49725166    -0.67300
O563        O  0.25070900  0.54275284  0.46495538    -0.86600
C564        C  0.42305058  0.77968708  0.47414077     0.85600
C565        C  0.35470105  0.79465984  0.53922494     1.07200
H566        H  0.31747321  0.65739249  0.46034898     0.39000
O567        O  0.30314754  0.64823334  0.47890325    -1.09300
O568        O  0.29713835  0.58903572  0.52780815    -0.65900
Ni569      Ni  0.34885257  0.63691581  0.50153100     1.26300
O570        O  0.37293051  0.75184994  0.47248542    -0.66200
O571        O  0.33619082  0.57813288  0.47799992    -0.78500
C572        C  0.44428829  0.67110918  0.53120077     0.85000
O573        O  0.39860147  0.63083495  0.52522205    -0.65600
Ni574      Ni  0.23087673  0.59249090  0.47481671     1.27400
Ni575      Ni  0.31544378  0.71070491  0.49767011     1.26100
H576        H  0.33800769  0.68348644  0.53973400     0.39500
O577        O  0.41997965  0.53902897  0.72276023    -0.74000
O578        O  0.34037172  0.93063660  0.77578175    -0.74000
O579        O  0.34261474  0.93664524  0.71978440    -0.74100
O580        O  0.41813525  0.53350733  0.78008051    -0.74100
O581        O  0.36142653  0.56041532  0.77970116    -0.74000
O582        O  0.28296607  0.95981146  0.72033029    -0.74000
O583        O  0.28280325  0.95647338  0.77777992    -0.74000
O584        O  0.36062787  0.56245236  0.72194855    -0.74100
Ni585      Ni  0.38247762  0.48440295  0.74964343     1.25400
Ni586      Ni  0.31980986  0.51077131  0.75006749     1.25400
C587        C  0.40082640  0.56461216  0.71158765     0.88200
C588        C  0.29954141  0.92675788  0.78611750     0.88100
C589        C  0.30153979  0.93361574  0.70958794     0.88200
C590        C  0.40120405  0.56136320  0.79060896     0.88300
O591        O  0.14524189  0.58941695  0.72317710    -0.74000
O592        O  0.09827424  0.64456898  0.77879926    -0.74000
O593        O  0.09629040  0.64246134  0.72135244    -0.74100
O594        O  0.14832707  0.59262928  0.77994140    -0.74100
O595        O  0.22573122  0.67009717  0.77895870    -0.74000
O596        O  0.17332299  0.72025672  0.72062694    -0.74000
O597        O  0.17539438  0.72219621  0.77892546    -0.74000
O598        O  0.22232880  0.66678550  0.72102154    -0.74100
Ni599      Ni  0.11937462  0.61471459  0.75083096     1.25400
Ni600      Ni  0.20204730  0.69775894  0.74985160     1.25400
C601        C  0.18919998  0.61990605  0.71130558     0.88200
C602        C  0.13052986  0.69004201  0.78991637     0.88100
C603        C  0.12751205  0.68806230  0.71013252     0.88200
C604        C  0.19455988  0.62447125  0.79005399     0.88300
O605        O  0.08284787  0.94352536  0.77849299    -0.74000
O606        O  0.48268680  0.91030354  0.72137191    -0.74000
O607        O  0.48128172  0.90952681  0.77769280    -0.74100
O608        O  0.08425438  0.94252576  0.72206770    -0.74100
O609        O  0.06365630  0.85786201  0.72292955    -0.74000
O610        O  0.45899770  0.82453795  0.77750340    -0.74000
O611        O  0.46155581  0.82566401  0.72063122    -0.74000
O612        O  0.06041502  0.85844153  0.78108836    -0.74100
Ni613      Ni  0.03368696  0.92939195  0.74982689     1.25400
Ni614      Ni  0.01071590  0.83850956  0.75043395     1.25400
C615        C  0.08289299  0.90580050  0.79144632     0.88200
C616        C  0.45637769  0.86329184  0.71099779     0.88100
C617        C  0.45478244  0.86206492  0.78766638     0.88200
C618        C  0.08866843  0.90478139  0.71237329     0.88300
C619        C  0.03415791  0.69583052  0.55244122     0.02700
C620        C  0.47790573  0.66874262  0.55368499     0.02700
C621        C  0.45326889  0.64808298  0.57946027    -0.17800
C622        C  0.48259169  0.65758941  0.60414698     0.02700
C623        C  0.03808393  0.68953409  0.60364754     0.02700
C624        C  0.06297598  0.70618303  0.57775753    -0.17800
H625        H  0.10556729  0.72838796  0.57757599     0.04800
H626        H  0.41071598  0.62607115  0.58060370     0.04800
C627        C  0.22412839  0.53904495  0.55662200     0.02700
C628        C  0.19412630  0.98283407  0.55684684     0.02700
C629        C  0.17468175  0.95591689  0.58216463    -0.17800
C630        C  0.18300928  0.98396632  0.60712546     0.02700
C631        C  0.20969811  0.54065176  0.60634459     0.02700
C632        C  0.23100143  0.56775039  0.58124230    -0.17800
H633        H  0.25169879  0.61103349  0.58071411     0.04800
H634        H  0.15551943  0.91274490  0.58267306     0.04800
C635        C  0.32514734  0.80679372  0.93823626     0.02700
C636        C  0.29020811  0.82501817  0.93787069     0.02700
C637        C  0.27020376  0.82976045  0.91215521    -0.17800
C638        C  0.29290278  0.82957892  0.88713463     0.02700
C639        C  0.33484380  0.82090118  0.88777956     0.02700
C640        C  0.34821763  0.80628057  0.91295045    -0.17800
H641        H  0.37756984  0.79551467  0.91292508     0.04800
H642        H  0.23949954  0.83869613  0.91178735     0.04800
C643        C  0.33638446  0.81763987  0.56056455     0.02700
C644        C  0.29020728  0.81974570  0.55788121     0.02700
C645        C  0.27073295  0.83221935  0.58136514    -0.17800
C646        C  0.29447038  0.84003902  0.60769344     0.02700
C647        C  0.33943313  0.83684311  0.61032531     0.02700
C648        C  0.36044926  0.82733310  0.58702511    -0.17800
H649        H  0.39502696  0.82507805  0.59021960     0.04800
H650        H  0.23671580  0.83576656  0.57914087     0.04800
C651        C  0.20472914  0.54629901  0.94954417     0.02700
C652        C  0.17594708  0.98896309  0.95008171     0.02700
C653        C  0.15561957  0.96038927  0.92506805    -0.17800
C654        C  0.16619323  0.98631300  0.89949839     0.02700
C655        C  0.19784626  0.54283672  0.89819849     0.02700
C656        C  0.21598584  0.57184209  0.92332354    -0.17800
H657        H  0.24016163  0.61504448  0.92229457     0.04800
H658        H  0.13280514  0.91697262  0.92525748     0.04800
C659        C  0.49464132  0.69898021  0.94234040     0.02700
C660        C  0.05007126  0.73290886  0.94401387     0.02700
C661        C  0.08003454  0.73873558  0.92027158    -0.17800
C662        C  0.05527278  0.71176541  0.89507109     0.02700
C663        C  0.49973056  0.67827175  0.89354121     0.02700
C664        C  0.47028557  0.67183335  0.91727930    -0.17800
H665        H  0.42774064  0.64686642  0.91590066     0.04800
H666        H  0.12258731  0.76319564  0.92157198     0.04800
O667        O  0.27934230  0.85343782  0.51538782    -0.80400
O668        O  0.09109678  0.86580668  0.47305741    -0.65100
O669        O  0.18592266  0.84808811  0.51960174    -1.11700
C670        C  0.13110156  0.69936276  0.46088975     1.06500
O671        O  0.03042693  0.78104250  0.47892039    -0.78300
O672        O  0.04037384  0.70590267  0.50279791    -0.65900
Ni673      Ni  0.25843755  0.90278354  0.52337605     1.34900
C674        C  0.06474286  0.71653399  0.52594808     0.85200
O675        O  0.15443083  0.91921916  0.51980839    -0.78900
O676        O  0.23985124  0.95354819  0.53252233    -0.89100
C677        C  0.04449654  0.82595985  0.46826637     0.84800
O678        O  0.27187558  0.92557814  0.48565408    -0.67300
O679        O  0.09022890  0.70085954  0.45480108    -0.86600
C680        C  0.24292279  0.92735491  0.46687524     0.85600
C681        C  0.19628302  0.95128245  0.53401091     1.07200
H682        H  0.14991819  0.81071133  0.45919928     0.39000
O683        O  0.13119312  0.79890466  0.47657702    -1.09300
O684        O  0.11480426  0.74497710  0.52755854    -0.65900
Ni685      Ni  0.17193299  0.78424851  0.50183334     1.26300
O686        O  0.19364183  0.90684548  0.46969025    -0.66200
O687        O  0.15971247  0.72213627  0.48234228    -0.78500
C688        C  0.26240631  0.81356294  0.53132546     0.85000
O689        O  0.21514839  0.77517526  0.52821404    -0.65600
Ni690      Ni  0.06138912  0.74150025  0.46759304     1.27400
Ni691      Ni  0.14102806  0.85987089  0.49661640     1.26100
H692        H  0.17168983  0.83998577  0.53819320     0.39500
O693        O  0.21940668  0.96706529  0.98379460    -0.80400
O694        O  0.21418683  0.77579301  0.03239351    -0.65100
O695        O  0.19278384  0.86210872  0.98121421    -1.11700
C696        C  0.04896960  0.81079563  0.03558244     1.06500
O697        O  0.12979695  0.70982649  0.03270280    -0.78300
O698        O  0.08472918  0.73137683  0.98852754    -0.65900
Ni699      Ni  0.25077449  0.92967323  0.97011979     1.34900
C700        C  0.07648352  0.75862399  0.97101843     0.85200
O701        O  0.26069425  0.82371509  0.98407809    -0.78900
O702        O  0.28205980  0.89318482  0.95562224    -0.89100
C703        C  0.17725027  0.73059686  0.04103656     0.84800
O704        O  0.29317664  0.95139275  0.00311092    -0.67300
O705        O  0.04089683  0.76713888  0.02561410    -0.86600
C706        C  0.28443964  0.93003447  0.02691096     0.85600
C707        C  0.27907793  0.84929595  0.96141436     1.07200
H708        H  0.15864927  0.82787419  0.04464223     0.39000
O709        O  0.14809228  0.81311623  0.02603241    -1.09300
O710        O  0.08696259  0.80566325  0.97684021    -0.65900
Ni711      Ni  0.13893954  0.86045295  0.00274058     1.26300
O712        O  0.25239254  0.87988387  0.03035597    -0.66200
O713        O  0.08674632  0.85569894  0.02713712    -0.78500
C714        C  0.17582516  0.95638883  0.97370154     0.85000
O715        O  0.13471054  0.91135056  0.97923499    -0.65600
Ni716      Ni  0.08822933  0.74190164  0.02810238     1.27400
Ni717      Ni  0.20561637  0.81960828  0.00618817     1.26100
H718        H  0.17777223  0.84179329  0.96423840     0.39500
O719        O  0.43391806  0.65459321  0.22035688    -0.74000
O720        O  0.03498896  0.68056692  0.27788039    -0.74000
O721        O  0.03561093  0.68585420  0.22098425    -0.74100
O722        O  0.43393835  0.65029857  0.27804171    -0.74100
O723        O  0.41046093  0.56481311  0.27555951    -0.74000
O724        O  0.01164244  0.60047416  0.21852236    -0.74000
O725        O  0.01157140  0.59535186  0.27514046    -0.74000
O726        O  0.40973377  0.56884665  0.21901845    -0.74100
Ni727      Ni  0.48520837  0.67088765  0.24937179     1.25400
Ni728      Ni  0.45993172  0.57938757  0.24694660     1.25400
C729        C  0.40746438  0.60788901  0.20927952     0.88200
C730        C  0.03859270  0.64153071  0.28661509     0.88100
C731        C  0.03976419  0.64886063  0.20992144     0.88200
C732        C  0.40811790  0.60234009  0.28727920     0.88300
O733        O  0.29418542  0.84151754  0.27687488    -0.74000
O734        O  0.32541545  0.77241175  0.21945787    -0.74000
O735        O  0.32137454  0.76916227  0.27732640    -0.74100
O736        O  0.29865070  0.84521846  0.21925578    -0.74100
O737        O  0.38317116  0.91011794  0.22230839    -0.74000
O738        O  0.40653657  0.83341337  0.27882787    -0.74000
O739        O  0.41020346  0.83726470  0.22200402    -0.74000
O740        O  0.37902687  0.90561001  0.27976192    -0.74100
Ni741      Ni  0.30685747  0.80466386  0.24810594     1.25400
Ni742      Ni  0.39764763  0.87394208  0.25077027     1.25400
C743        C  0.33209326  0.88294764  0.28915247     0.88200
C744        C  0.37241519  0.79488042  0.21042359     0.88100
C745        C  0.36710633  0.79096023  0.28878088     0.88200
C746        C  0.33819687  0.88883739  0.21007530     0.88300
C747        C  0.29777197  0.51362927  0.44137287     0.02700
C748        C  0.26905116  0.95716820  0.44119323     0.02700
C749        C  0.26959066  0.93008267  0.41702490    -0.17800
C750        C  0.29513113  0.95883309  0.39263752     0.02700
C751        C  0.31733410  0.51482297  0.39211088     0.02700
C752        C  0.32054261  0.54160288  0.41671680    -0.17800
H753        H  0.33834938  0.58462897  0.41625425     0.04800
H754        H  0.25127278  0.88705241  0.41739627     0.04800
O755        O  0.13611504  0.94044859  0.28105401    -0.74000
O756        O  0.21803095  0.54535593  0.22532743    -0.74000
O757        O  0.21398058  0.54329853  0.28231406    -0.74100
O758        O  0.14016502  0.94155748  0.22335679    -0.74100
O759        O  0.08167328  0.96595523  0.22134109    -0.74000
O760        O  0.15470308  0.56699319  0.28002278    -0.74000
O761        O  0.15878719  0.56915174  0.22434911    -0.74000
O762        O  0.07724730  0.96426801  0.27828737    -0.74100
Ni763      Ni  0.17915673  0.99159003  0.25302157     1.25400
Ni764      Ni  0.11589392  0.01713002  0.25088647     1.25400
C765        C  0.09493925  0.93806606  0.29020784     0.88200
C766        C  0.20120263  0.57421048  0.21572220     0.88100
C767        C  0.19542794  0.57072970  0.29122207     0.88200
C768        C  0.10026263  0.93900999  0.21161322     0.88300
C769        C  0.33212568  0.52211847  0.05126860     0.02700
C770        C  0.31044843  0.96560220  0.05184983     0.02700
C771        C  0.30936269  0.94208036  0.07776917    -0.17800
C772        C  0.32513745  0.97216936  0.10268313     0.02700
C773        C  0.34030560  0.52647165  0.10200053     0.02700
C774        C  0.34597694  0.55103673  0.07634277    -0.17800
H775        H  0.35806025  0.59283408  0.07602185     0.04800
H776        H  0.29571179  0.89996666  0.07870964     0.04800
C777        C  0.14951231  0.67643322  0.43960165     0.02700
C778        C  0.19661257  0.67595977  0.44216160     0.02700
C779        C  0.21746192  0.66602533  0.41854234    -0.17800
C780        C  0.19396427  0.65842133  0.39226407     0.02700
C781        C  0.14741332  0.65886789  0.38961539     0.02700
C782        C  0.12524898  0.66633156  0.41311918    -0.17800
H783        H  0.08992634  0.66728123  0.41004807     0.04800
H784        H  0.25267853  0.66450111  0.42059389     0.04800
C785        C  0.21990567  0.68531073  0.06559086     0.02700
C786        C  0.18724692  0.70640578  0.06532926     0.02700
C787        C  0.16525605  0.70883495  0.09065698    -0.17800
C788        C  0.17604669  0.69194725  0.11584633     0.02700
C789        C  0.21538744  0.67928693  0.11653075     0.02700
C790        C  0.23812768  0.67857780  0.09148485    -0.17800
H791        H  0.26786703  0.66832806  0.09191600     0.04800
H792        H  0.13765655  0.72192229  0.09058303     0.04800
C793        C  0.45355716  0.79955855  0.44767116     0.02700
C794        C  0.00990294  0.82816437  0.44628897     0.02700
C795        C  0.03385807  0.84968436  0.42047955    -0.17800
C796        C  0.00402305  0.83771674  0.39575794     0.02700
C797        C  0.44887772  0.80181482  0.39650076     0.02700
C798        C  0.42435706  0.78599609  0.42239852    -0.17800
H799        H  0.38180566  0.76113722  0.42259561     0.04800
H800        H  0.07638816  0.87387938  0.41931926     0.04800
C801        C  0.01512758  0.80761217  0.05843004     0.02700
C802        C  0.46041642  0.77079238  0.05713511     0.02700
C803        C  0.43080668  0.75754460  0.08162590    -0.17800
C804        C  0.45494802  0.78210356  0.10730076     0.02700
C805        C  0.00949715  0.82213123  0.10804717     0.02700
C806        C  0.03904396  0.83364731  0.08371783    -0.17800
H807        H  0.08115116  0.86215778  0.08465463     0.04800
H808        H  0.38888588  0.72830541  0.08067932     0.04800
C809        C  0.09058656  0.88320436  0.33155349    -0.20800
C810        C  0.06993311  0.90903074  0.31635289    -0.08900
C811        C  0.02926144  0.91278548  0.32824623     0.30000
C812        C  0.01056764  0.89197652  0.35457323    -0.20800
C813        C  0.02999850  0.86493810  0.36937013    -0.08900
C814        C  0.07063768  0.86104075  0.35780638     0.30000
F815        F  0.08987741  0.83455277  0.37146213    -0.19400
H816        H  0.12242287  0.88045529  0.32323258     0.18300
H817        H  0.47965726  0.89590939  0.36326270     0.18300
F818        F  0.00773472  0.93732012  0.31479593    -0.19400
C819        C  0.07420755  0.84983329  0.14808227    -0.20800
C820        C  0.03546746  0.85408729  0.13377104    -0.08900
C821        C  0.01886932  0.88643828  0.14503107     0.30000
C822        C  0.03880959  0.91209254  0.17067940    -0.20800
C823        C  0.07695439  0.90741750  0.18547544    -0.08900
C824        C  0.09506771  0.87641977  0.17365058     0.30000
F825        F  0.13294334  0.87185345  0.18661755    -0.19400
H826        H  0.08756853  0.82512880  0.13967317     0.18300
H827        H  0.02484832  0.93653821  0.17869305     0.18300
F828        F  0.48309008  0.89309581  0.13114286    -0.19400
C829        C  0.21483158  0.57647233  0.34136324    -0.20800
C830        C  0.21694845  0.60282409  0.31660012    -0.08900
C831        C  0.22535142  0.65421828  0.31778694     0.30000
C832        C  0.22620970  0.67651583  0.34351197    -0.20800
C833        C  0.21584022  0.64645810  0.36797913    -0.08900
C834        C  0.21422521  0.59807838  0.36706924     0.30000
F835        F  0.20442662  0.56820490  0.39041598    -0.19400
H836        H  0.20644268  0.53607246  0.34066961     0.18300
H837        H  0.22804265  0.71411443  0.34400331     0.18300
F838        F  0.22627642  0.67982407  0.29405503    -0.19400
C839        C  0.23456782  0.68620281  0.16794507    -0.20800
C840        C  0.22873459  0.66050527  0.14233963    -0.08900
C841        C  0.22908572  0.61282956  0.14213778     0.30000
C842        C  0.22923170  0.58878876  0.16717305    -0.20800
C843        C  0.22691702  0.61063534  0.19250340    -0.08900
C844        C  0.23218234  0.66074023  0.19290979     0.30000
F845        F  0.22861947  0.68174005  0.21730927    -0.19400
H846        H  0.23598630  0.72359107  0.16866579     0.18300
H847        H  0.22380828  0.54947058  0.16659042     0.18300
F848        F  0.22243669  0.58566201  0.11809058    -0.19400
C849        C  0.41107670  0.75967847  0.32097662    -0.20800
C850        C  0.37373373  0.77366405  0.31645921    -0.08900
C851        C  0.35379733  0.78641746  0.33946576     0.30000
C852        C  0.37525691  0.79112117  0.36613040    -0.20800
C853        C  0.41647052  0.78246175  0.37027984    -0.08900
C854        C  0.43118798  0.76243115  0.34788091     0.30000
F855        F  0.96836115  0.75005435  0.35160627    -0.19400
H856        H  0.42709120  0.75004002  0.30348546     0.18300
H857        H  0.36286918  0.80609907  0.38299451     0.18300
F858        F  0.31834286  0.80106321  0.33560214    -0.19400
C859        C  0.36111269  0.78040198  0.15940163    -0.20800
C860        C  0.38275285  0.77556240  0.18453328    -0.08900
C861        C  0.42123023  0.76247304  0.18373646     0.30000
C862        C  0.44026296  0.75795898  0.15807598    -0.20800
C863        C  0.42286841  0.76885971  0.13297281    -0.08900
C864        C  0.38093863  0.77711768  0.13375528     0.30000
F865        F  0.36345683  0.78831432  0.11005681    -0.19400
H866        H  0.33220299  0.79169176  0.15967519     0.18300
H867        H  0.47220483  0.75103417  0.15792273     0.18300
F868        F  0.44291947  0.75786260  0.20774358    -0.19400
C869        C  0.35456953  0.95197984  0.35946998    -0.20800
C870        C  0.30300163  0.93249629  0.36828411    -0.08900
C871        C  0.26081488  0.89567354  0.35114659     0.30000
C872        C  0.27040094  0.88062379  0.32519731    -0.20800
C873        C  0.32218093  0.90206639  0.31578033    -0.08900
C874        C  0.36425940  0.93752758  0.33356452     0.30000
F875        F  0.41499683  0.95828913  0.32614681    -0.19400
H876        H  0.38768573  0.98053456  0.37231305     0.18300
H877        H  0.23713988  0.85256758  0.31230715     0.18300
F878        F  0.21053613  0.87713554  0.35860587    -0.19400
C879        C  0.37552165  0.97321858  0.14463789    -0.20800
C880        C  0.32804388  0.94789801  0.12936113    -0.08900
C881        C  0.28305604  0.90432553  0.14128182     0.30000
C882        C  0.28585297  0.88660767  0.16807133    -0.20800
C883        C  0.33344033  0.91232349  0.18353114    -0.08900
C884        C  0.37817619  0.95654383  0.17151819     0.30000
F885        F  0.42493897  0.98361859  0.18547293    -0.19400
H886        H  0.41050048  0.50727952  0.13593416     0.18300
H887        H  0.25082455  0.85233255  0.17657017     0.18300
F888        F  0.23618117  0.88012926  0.12742098    -0.19400
C889        C  0.38936371  0.58893801  0.36430837    -0.20800
C890        C  0.33711108  0.54576191  0.36581082    -0.08900
C891        C  0.30550793  0.52898383  0.34143971     0.30000
C892        C  0.32765861  0.55050494  0.31557919    -0.20800
C893        C  0.38087673  0.59077260  0.31391022    -0.08900
C894        C  0.41113640  0.61150710  0.33852215     0.30000
F895        F  0.46321648  0.64953411  0.33730486    -0.19400
H896        H  0.41430436  0.60262722  0.38280411     0.18300
H897        H  0.30403104  0.53393705  0.29676181     0.18300
F898        F  0.25405528  0.98931981  0.34245859    -0.19400
C899        C  0.41350213  0.62723167  0.15949479    -0.20800
C900        C  0.38119089  0.59996888  0.18220502    -0.08900
C901        C  0.33062570  0.55515233  0.17732421     0.30000
C902        C  0.31455777  0.53559053  0.15018983    -0.20800
C903        C  0.35026204  0.55790257  0.12808175    -0.08900
C904        C  0.39860407  0.60613375  0.13258105     0.30000
F905        F  0.43410214  0.62919316  0.11181776    -0.19400
H906        H  0.45325204  0.66082167  0.16303331     0.18300
H907        H  0.27635627  0.49946262  0.14693006     0.18300
F908        F  0.29910818  0.52719533  0.19895532    -0.19400
C909        C  0.07126594  0.60352010  0.32199476    -0.20800
C910        C  0.07147354  0.64819595  0.31138383    -0.08900
C911        C  0.09877503  0.69683726  0.32631812     0.30000
C912        C  0.12373899  0.69984852  0.35161200    -0.20800
C913        C  0.12215537  0.65480948  0.36235273    -0.08900
C914        C  0.09617085  0.60666769  0.34731499     0.30000
F915        F  0.09377446  0.56247268  0.35746376    -0.19400
H916        H  0.05042609  0.56545210  0.31113766     0.18300
H917        H  0.14407659  0.73733426  0.36304223     0.18300
F918        F  0.10024383  0.74108656  0.31703971    -0.19400
C919        C  0.07767711  0.61972424  0.17325528    -0.20800
C920        C  0.07622447  0.66142412  0.18636703    -0.08900
C921        C  0.10795932  0.71385173  0.17584173     0.30000
C922        C  0.14023342  0.72377933  0.15282331    -0.20800
C923        C  0.14162354  0.68187948  0.14004223    -0.08900
C924        C  0.10965182  0.62968006  0.15030031     0.30000
F925        F  0.10886504  0.58806413  0.13782160    -0.19400
H926        H  0.05343404  0.57893425  0.18051177     0.18300
H927        H  0.16451592  0.76422979  0.14509097     0.18300
F928        F  0.10777276  0.75551184  0.18758223    -0.19400
C929        C  0.39569400  0.79973035  0.82458287    -0.20800
C930        C  0.42196415  0.85108127  0.81256543    -0.08900
C931        C  0.42078994  0.89254672  0.82625479     0.30000
C932        C  0.39424991  0.88269772  0.85132599    -0.20800
C933        C  0.36742978  0.83130196  0.86293513    -0.08900
C934        C  0.36860819  0.78986436  0.84956587     0.30000
F935        F  0.34238733  0.73969915  0.86026617    -0.19400
H936        H  0.39635523  0.76712297  0.81476594     0.18300
H937        H  0.39362641  0.91505122  0.86150999     0.18300
F938        F  0.44576401  0.94280818  0.81572152    -0.19400
C939        C  0.09913661  0.96078766  0.86324419    -0.20800
C940        C  0.13815136  0.95426957  0.87464693    -0.08900
C941        C  0.15414327  0.92377404  0.86035398     0.30000
C942        C  0.13513001  0.90526149  0.83314917    -0.20800
C943        C  0.09969677  0.91674019  0.82078879    -0.08900
C944        C  0.08018940  0.94249130  0.83661716     0.30000
F945        F  0.04443702  0.45259981  0.82578933    -0.19400
H946        H  0.08590844  0.48338724  0.87432112     0.18300
H947        H  0.14989267  0.88478132  0.82141627     0.18300
F948        F  0.19083501  0.91576250  0.87186260    -0.19400
C949        C  0.08756438  0.89134244  0.66181637    -0.20800
C950        C  0.11720590  0.91420384  0.68631965    -0.08900
C951        C  0.17064252  0.95379076  0.68452381     0.30000
C952        C  0.19341749  0.97203736  0.65838336    -0.20800
C953        C  0.16235918  0.95384393  0.63381183    -0.08900
C954        C  0.10954433  0.91145815  0.63573278     0.30000
F955        F  0.07770061  0.89315228  0.61279885    -0.19400
H956        H  0.04590000  0.86138021  0.66297662     0.18300
H957        H  0.23434118  0.50385353  0.65746148     0.18300
F958        F  0.19969500  0.47719222  0.70798055    -0.19400
C959        C  0.42497392  0.89913597  0.67400339    -0.20800
C960        C  0.42195681  0.85448070  0.68673456    -0.08900
C961        C  0.38903772  0.80347963  0.67482588     0.30000
C962        C  0.36142909  0.79794509  0.65012713    -0.20800
C963        C  0.36583967  0.84288600  0.63729120    -0.08900
C964        C  0.39745096  0.89348110  0.64939644     0.30000
F965        F  0.40322192  0.93755229  0.63684775    -0.19400
H966        H  0.45008999  0.93901542  0.68253839     0.18300
H967        H  0.33690672  0.75865537  0.64079122     0.18300
F968        F  0.38409223  0.75924836  0.68666971    -0.19400
C969        C  0.08362045  0.66580232  0.86395249    -0.20800
C970        C  0.08653630  0.71317326  0.87102634    -0.10700
C971        C  0.10928990  0.75616050  0.85218365     0.30000
C972        C  0.12599564  0.75028190  0.82585284    -0.20800
C973        C  0.11762015  0.70055114  0.81785110    -0.08900
C974        C  0.09695054  0.65867372  0.83741209     0.30000
F975        F  0.08878119  0.61011254  0.83075450    -0.19400
H976        H  0.06666740  0.63246137  0.87830879     0.18300
H977        H  0.14263666  0.78329305  0.81130763     0.18300
F978        F  0.61219345  0.80225773  0.85863718    -0.19400
C979        C  0.20177615  0.63460219  0.84111714    -0.20800
C980        C  0.20844526  0.61162344  0.81726562    -0.08900
C981        C  0.22079889  0.57232400  0.82041619     0.30000
C982        C  0.22312343  0.55421326  0.84718458    -0.20800
C983        C  0.20902019  0.57189018  0.87090633    -0.08900
C984        C  0.20075079  0.61430593  0.86762463     0.30000
F985        F  0.18777549  0.63365090  0.88961669    -0.19400
H986        H  0.19363547  0.66602654  0.83902876     0.18300
H987        H  0.23311219  0.02416451  0.84920298     0.18300
F988        F  0.22912301  0.55054897  0.79772979    -0.19400
C989        C  0.24767923  0.62188336  0.67325733    -0.20800
C990        C  0.19733057  0.60211516  0.68415247    -0.08900
C991        C  0.15270511  0.56854285  0.66733074     0.30000
C992        C  0.15831262  0.55434598  0.64074362    -0.20800
C993        C  0.20795640  0.57000733  0.63076738    -0.08900
C994        C  0.25306678  0.60529315  0.64672538     0.30000
F995        F  0.30165370  0.62093483  0.63740909    -0.19400
H996        H  0.28249578  0.64878342  0.68551376     0.18300
H997        H  0.12328709  0.02778058  0.62849614     0.18300
F998        F  0.10320684  0.55082393  0.67604052    -0.19400
C999        C  0.10584217  0.68492844  0.63235203    -0.20800
C1000       C  0.07011705  0.70153356  0.62995747    -0.08900
C1001       C  0.06073070  0.72320855  0.65380581     0.30000
C1002       C  0.08074859  0.72088146  0.68011357    -0.20800
C1003       C  0.11291374  0.69992923  0.68265495    -0.08900
C1004       C  0.12759021  0.68492770  0.65830991     0.30000
F1005       F  0.16150103  0.66809982  0.65975863    -0.19400
H1006       H  0.11477293  0.66918588  0.61436167     0.18300
H1007       H  0.07012596  0.73413532  0.69847816     0.18300
F1008       F  0.53063807  0.74475078  0.65180076    -0.19400
C1009       C  0.43795320  0.64461407  0.82033028    -0.20800
C1010       C  0.42603134  0.59202643  0.81678191    -0.08900
C1011       C  0.43617841  0.56750189  0.83910820     0.30000
C1012       C  0.45815599  0.59508904  0.86422741    -0.20800
C1013       C  0.47195402  0.64824303  0.86745239    -0.08900
C1014       C  0.46144154  0.67283637  0.84530179     0.30000
F1015       F  0.47390116  0.72406352  0.84784397    -0.19400
H1016       H  0.42996436  0.66412769  0.80358852     0.18300
H1017       H  0.96558120  0.57530586  0.88106220     0.18300
F1018       F  0.42332671  0.51610941  0.83694112    -0.19400
C1019       C  0.27666373  0.91632089  0.83537133    -0.20800
C1020       C  0.27657311  0.89214542  0.81032881    -0.08900
C1021       C  0.27068873  0.84169258  0.81079313     0.30000
C1022       C  0.26909305  0.81781182  0.83623619    -0.20800
C1023       C  0.27733478  0.84590836  0.86129500    -0.08900
C1024       C  0.27848875  0.89423702  0.86075037     0.30000
F1025       F  0.28787131  0.92348063  0.88434122    -0.19400
H1026       H  0.28244162  0.95581898  0.83530779     0.18300
H1027       H  0.26696870  0.78003156  0.83625790     0.18300
F1028       F  0.27219971  0.81841016  0.78676362    -0.19400
C1029       C  0.44849042  0.57310859  0.66833456    -0.20800
C1030       C  0.42185437  0.59088699  0.68444060    -0.08900
C1031       C  0.41023528  0.62725561  0.67256200     0.30000
C1032       C  0.42728138  0.64695930  0.64555518    -0.20800
C1033       C  0.45561852  0.63030225  0.63017856    -0.08900
C1034       C  0.46448421  0.59192112  0.64144512     0.30000
F1035       F  0.98983988  0.57352902  0.62652775    -0.19400
H1036       H  0.45608382  0.54343836  0.67629153     0.18300
H1037       H  0.42025832  0.67668789  0.63707148     0.18300
F1038       F  0.38336091  0.64435827  0.68708465    -0.19400
C1039       C  0.28598488  0.90835486  0.63287483    -0.20800
C1040       C  0.27579378  0.85619510  0.63197461    -0.08900
C1041       C  0.26081190  0.82563925  0.65655777     0.30000
C1042       C  0.26345265  0.84954798  0.68217545    -0.20800
C1043       C  0.27958792  0.90361657  0.68340944    -0.08900
C1044       C  0.28837629  0.93219908  0.65847255     0.30000
F1045       F  0.30698113  0.98531890  0.65917714    -0.19400
H1046       H  0.29819405  0.93266297  0.61422109     0.18300
H1047       H  0.25732248  0.82724082  0.70122535     0.18300
F1048       F  0.24999246  0.77481936  0.65618563    -0.19400
O1049       O  0.88075429  0.30115784  0.97149457    -0.80400
O1050       O  0.87357102  0.09645168  0.02037865    -0.65100
O1051       O  0.86155126  0.19745700  0.97557431    -1.11700
C1052       C  0.73167290  0.16170711  0.04168515     1.06500
O1053       O  0.78849709  0.04263064  0.01716033    -0.78300
O1054       O  0.71597411  0.05940870  0.99878127    -0.65900
Ni1055     Ni  0.92194243  0.26831326  0.97349531     1.34900
C1056       C  0.72735790  0.08098152  0.97502209     0.85200
O1057       O  0.92142939  0.15352063  0.97276226    -0.78900
O1058       O  0.96925736  0.24265775  0.97336140    -0.89100
C1059       C  0.83201789  0.05261352  0.02684151     0.84800
O1060       O  0.92780497  0.27706032  0.01313377    -0.67300
O1061       O  0.72845077  0.11756965  0.04705900    -0.86600
C1062       C  0.93436356  0.24775400  0.02997485     0.85600
C1063       C  0.96041045  0.19797144  0.96442827     1.07200
H1064       H  0.83304562  0.16751851  0.03732512     0.39000
O1065       O  0.81725690  0.14765255  0.02042357    -1.09300
O1066       O  0.75859154  0.13136292  0.97206482    -0.65900
Ni1067     Ni  0.80478131  0.19130392  0.99623198     1.26300
O1068       O  0.92274600  0.20085508  0.02341545    -0.66200
O1069       O  0.75015452  0.18754720  0.01903658    -0.78500
C1070       C  0.83392640  0.28119684  0.96233471     0.85000
O1071       O  0.79636248  0.23583852  0.97043048    -0.65600
Ni1072     Ni  0.75851770  0.08042936  0.03170057     1.27400
Ni1073     Ni  0.86977329  0.14844880  0.99772115     1.26100
H1074       H  0.85053771  0.18351603  0.95697435     0.39500
O1075       O  0.95823406  0.21625499  0.52099736    -0.80400
O1076       O  0.77167067  0.21978662  0.47172819    -0.65100
O1077       O  0.85695185  0.19639533  0.52246868    -1.11700
C1078       C  0.79442193  0.04515408  0.46392661     1.06500
O1079       O  0.70828896  0.14037625  0.48368471    -0.78300
O1080       O  0.71815511  0.06878107  0.51231652    -0.65900
Ni1081     Ni  0.92602683  0.25442362  0.53227382     1.34900
C1082       C  0.74804176  0.06779706  0.53076097     0.85200
O1083       O  0.82574367  0.27124901  0.51798759    -0.78900
O1084       O  0.89615365  0.29410365  0.54502835    -0.89100
C1085       C  0.72450588  0.18120721  0.46853086     0.84800
O1086       O  0.94744287  0.29026177  0.49725172    -0.67300
O1087       O  0.75070840  0.04275313  0.46495518    -0.86600
C1088       C  0.92305138  0.27968733  0.47414074     0.85600
C1089       C  0.85470156  0.29465954  0.53922524     1.07200
H1090       H  0.81747321  0.15739294  0.46034878     0.39000
O1091       O  0.80314777  0.14823387  0.47890284    -1.09300
O1092       O  0.79713825  0.08903544  0.52780749    -0.65900
Ni1093     Ni  0.84885256  0.13691578  0.50153045     1.26300
O1094       O  0.87293133  0.25185019  0.47248531    -0.66200
O1095       O  0.83619048  0.07813302  0.47799908    -0.78500
C1096       C  0.94428804  0.17110860  0.53120025     0.85000
O1097       O  0.89860129  0.13083442  0.52522138    -0.65600
Ni1098     Ni  0.73087679  0.09249180  0.47481637     1.27400
Ni1099     Ni  0.81544442  0.21070541  0.49766990     1.26100
H1100       H  0.83800803  0.18348628  0.53973345     0.39500
O1101       O  0.91997969  0.03902989  0.72275986    -0.74000
O1102       O  0.84036986  0.43063424  0.77578121    -0.74000
O1103       O  0.84261414  0.43664472  0.71978393    -0.74100
O1104       O  0.91813667  0.03350998  0.78008000    -0.74100
O1105       O  0.86142702  0.06041681  0.77970093    -0.74000
O1106       O  0.78296563  0.45981113  0.72033012    -0.74000
O1107       O  0.78280225  0.45647208  0.77777964    -0.74000
O1108       O  0.86062768  0.06245303  0.72194840    -0.74100
Ni1109     Ni  0.88247865  0.98440459  0.74964345     1.25400
Ni1110     Ni  0.81981029  0.01077220  0.75006749     1.25400
C1111       C  0.90082616  0.06461290  0.71158739     0.88200
C1112       C  0.79953972  0.42675584  0.78611698     0.88100
C1113       C  0.80153926  0.43361555  0.70958757     0.88200
C1114       C  0.90120511  0.06136548  0.79060848     0.88300
O1115       O  0.64524322  0.08941757  0.72317699    -0.74000
O1116       O  0.59827491  0.14456915  0.77879905    -0.74000
O1117       O  0.59629035  0.14246060  0.72135230    -0.74100
O1118       O  0.64832900  0.09263074  0.77994122    -0.74100
O1119       O  0.72573264  0.17009914  0.77895814    -0.74000
O1120       O  0.67332226  0.22025669  0.72062651    -0.74000
O1121       O  0.67539454  0.22219688  0.77892498    -0.74000
O1122       O  0.72232941  0.16678675  0.72102090    -0.74100
Ni1123     Ni  0.61937563  0.11471496  0.75083080     1.25400
Ni1124     Ni  0.70204767  0.19775994  0.74985105     1.25400
C1125       C  0.68920095  0.11990694  0.71130521     0.88200
C1126       C  0.63053026  0.19004239  0.78991604     0.88100
C1127       C  0.62751133  0.18806161  0.71013228     0.88200
C1128       C  0.69456180  0.12447328  0.79005363     0.88300
O1129       O  0.58284883  0.44352407  0.77849394    -0.74000
O1130       O  0.98268833  0.41030309  0.72137243    -0.74000
O1131       O  0.98128284  0.40952649  0.77769345    -0.74100
O1132       O  0.58425594  0.44252461  0.72206870    -0.74100
O1133       O  0.56365681  0.35786051  0.72293026    -0.74000
O1134       O  0.95899862  0.32453757  0.77750430    -0.74000
O1135       O  0.96155638  0.32566326  0.72063205    -0.74000
O1136       O  0.56041580  0.35844016  0.78108908    -0.74100
Ni1137     Ni  0.53368831  0.42939118  0.74982766     1.25400
Ni1138     Ni  0.51071660  0.33850859  0.75043474     1.25400
C1139       C  0.58289392  0.40579906  0.79144713     0.88200
C1140       C  0.95637875  0.36329128  0.71099841     0.88100
C1141       C  0.95478335  0.36206467  0.78766710     0.88200
C1142       C  0.58866948  0.40478002  0.71237415     0.88300
C1143       C  0.53415716  0.19582917  0.55244103     0.02700
C1144       C  0.97790502  0.16874194  0.55368467     0.02700
C1145       C  0.95326782  0.14808288  0.57945992    -0.17800
C1146       C  0.98259030  0.15758907  0.60414669     0.02700
C1147       C  0.53808255  0.18953257  0.60364733     0.02700
C1148       C  0.56297489  0.20618106  0.57775738    -0.17800
H1149       H  0.60556619  0.22838534  0.57757595     0.04800
H1150       H  0.91071492  0.12607166  0.58060325     0.04800
C1151       C  0.72412843  0.03904546  0.55662148     0.02700
C1152       C  0.69412634  0.48283355  0.55684749     0.02700
C1153       C  0.67468204  0.45591668  0.58216541    -0.17800
C1154       C  0.68300967  0.48396639  0.60712617     0.02700
C1155       C  0.70969787  0.04065179  0.60634405     0.02700
C1156       C  0.73100144  0.06775068  0.58124185    -0.17800
H1157       H  0.75169897  0.11103380  0.58071378     0.04800
H1158       H  0.65551974  0.41274471  0.58267399     0.04800
C1159       C  0.82514599  0.30679307  0.93823599     0.02700
C1160       C  0.79020660  0.32501732  0.93787044     0.02700
C1161       C  0.77020189  0.32975930  0.91215498    -0.17800
C1162       C  0.79290065  0.32957748  0.88713434     0.02700
C1163       C  0.83484186  0.32090005  0.88777926     0.02700
C1164       C  0.84821599  0.30627971  0.91295013    -0.17800
H1165       H  0.87756835  0.29551401  0.91292473     0.04800
H1166       H  0.73949766  0.33869495  0.91178719     0.04800
C1167       C  0.83638461  0.31763912  0.56056493     0.02700
C1168       C  0.79020744  0.31974499  0.55788145     0.02700
C1169       C  0.77073333  0.33221910  0.58136526    -0.17800
C1170       C  0.79447077  0.34003911  0.60769358     0.02700
C1171       C  0.83943334  0.33684283  0.61032575     0.02700
C1172       C  0.86044923  0.32733226  0.58702559    -0.17800
H1173       H  0.89502674  0.32507691  0.59022015     0.04800
H1174       H  0.73671626  0.33576643  0.57914089     0.04800
C1175       C  0.70472860  0.04629935  0.94954381     0.02700
C1176       C  0.67594774  0.48896277  0.95008224     0.02700
C1177       C  0.65562114  0.46038861  0.92506861    -0.17800
C1178       C  0.66619499  0.48631200  0.89949887     0.02700
C1179       C  0.69784514  0.04283776  0.89819815     0.02700
C1180       C  0.71598507  0.07184279  0.92332328    -0.17800
H1181       H  0.74016133  0.11504516  0.92229446     0.04800
H1182       H  0.63280695  0.41697196  0.92525816     0.04800
C1183       C  0.99464132  0.19898088  0.94233999     0.02700
C1184       C  0.55007125  0.23290937  0.94401367     0.02700
C1185       C  0.58003481  0.23873586  0.92027152    -0.17800
C1186       C  0.55527330  0.21176574  0.89507095     0.02700
C1187       C  0.99973107  0.17827268  0.89354086     0.02700
C1188       C  0.97028583  0.17183421  0.91727883    -0.17800
H1189       H  0.92774090  0.14686743  0.91590005     0.04800
H1190       H  0.62258757  0.26319568  0.92157207     0.04800
O1191       O  0.77934201  0.35343669  0.51538800    -0.80400
O1192       O  0.59109744  0.36580663  0.47305755    -0.65100
O1193       O  0.68592261  0.34808727  0.51960213    -1.11700
C1194       C  0.63110154  0.19936257  0.46088966     1.06500
O1195       O  0.53042758  0.28104258  0.47892077    -0.78300
O1196       O  0.54037374  0.20590181  0.50279777    -0.65900
Ni1197     Ni  0.75843751  0.40278239  0.52337679     1.34900
C1198       C  0.56474247  0.21653293  0.52594802     0.85200
O1199       O  0.65443150  0.41921913  0.51980866    -0.78900
O1200       O  0.73985120  0.45354672  0.53252373    -0.89100
C1201       C  0.54449719  0.32595976  0.46826654     0.84800
O1202       O  0.77187624  0.42557848  0.48565502    -0.67300
O1203       O  0.59022902  0.20085956  0.45480091    -0.86600
C1204       C  0.74292365  0.42735477  0.46687587     0.85600
C1205       C  0.69628328  0.45128175  0.53401170     1.07200
H1206       H  0.64991833  0.31071076  0.45919973     0.39000
O1207       O  0.63119331  0.29890422  0.47657730    -1.09300
O1208       O  0.61480386  0.24497618  0.52755869    -0.65900
Ni1209     Ni  0.67193284  0.28424767  0.50183363     1.26300
O1210       O  0.69364253  0.40684481  0.46969053    -0.66200
O1211       O  0.65971200  0.22213539  0.48234245    -0.78500
C1212       C  0.76240626  0.31356188  0.53132566     0.85000
O1213       O  0.71514825  0.27517420  0.52821434    -0.65600
Ni1214     Ni  0.56138933  0.24150014  0.46759312     1.27400
Ni1215     Ni  0.64102847  0.35987058  0.49661667     1.26100
H1216       H  0.67168958  0.33998482  0.53819342     0.39500
O1217       O  0.71940638  0.46706466  0.98379544    -0.80400
O1218       O  0.71418609  0.27579212  0.03239327    -0.65100
O1219       O  0.69278308  0.36210827  0.98121436    -1.11700
C1220       C  0.54896881  0.31079491  0.03558280     1.06500
O1221       O  0.62979619  0.20982562  0.03270250    -0.78300
O1222       O  0.58472857  0.23137665  0.98852740    -0.65900
Ni1223     Ni  0.75077389  0.42967279  0.97012004     1.34900
C1224       C  0.57648310  0.25862410  0.97101840     0.85200
O1225       O  0.76069345  0.32371463  0.98407795    -0.78900
O1226       O  0.78205874  0.39318425  0.95562206    -0.89100
C1227       C  0.67724954  0.23059593  0.04103626     0.84800
O1228       O  0.79317635  0.45139197  0.00311106    -0.67300
O1229       O  0.54089606  0.26713822  0.02561434    -0.86600
C1230       C  0.78443852  0.43003368  0.02691111     0.85600
C1231       C  0.77907679  0.34929532  0.96141413     1.07200
H1232       H  0.65864841  0.32787289  0.04464212     0.39000
O1233       O  0.64809155  0.31311540  0.02603252    -1.09300
O1234       O  0.58696193  0.30566319  0.97684043    -0.65900
Ni1235     Ni  0.63893893  0.36045249  0.00274096     1.26300
O1236       O  0.75239146  0.37988304  0.03035600    -0.66200
O1237       O  0.58674575  0.35569829  0.02713766    -0.78500
C1238       C  0.67582510  0.45638875  0.97370233     0.85000
O1239       O  0.63471021  0.41135065  0.97923570    -0.65600
Ni1240     Ni  0.58822856  0.24190087  0.02810231     1.27400
Ni1241     Ni  0.70561556  0.31960759  0.00618811     1.26100
H1242       H  0.67777154  0.34179320  0.96423867     0.39500
O1243       O  0.93391790  0.15459391  0.22035658    -0.74000
O1244       O  0.53498945  0.18056866  0.27787984    -0.74000
O1245       O  0.53561094  0.18585579  0.22098362    -0.74100
O1246       O  0.93393850  0.15029907  0.27804138    -0.74100
O1247       O  0.91046156  0.06481377  0.27555894    -0.74000
O1248       O  0.51164307  0.10047591  0.21852188    -0.74000
O1249       O  0.51157239  0.09535374  0.27513992    -0.74000
O1250       O  0.90973436  0.06884758  0.21901796    -0.74100
Ni1251     Ni  0.98520847  0.17088876  0.24937135     1.25400
Ni1252     Ni  0.95993246  0.07938886  0.24694611     1.25400
C1253       C  0.90746466  0.10788981  0.20927910     0.88200
C1254       C  0.53859349  0.14153263  0.28661455     0.88100
C1255       C  0.53976446  0.14886230  0.20992088     0.88200
C1256       C  0.90811823  0.10234046  0.28727872     0.88300
O1257       O  0.79418523  0.34151762  0.27687525    -0.74000
O1258       O  0.82541421  0.27241152  0.21945791    -0.74000
O1259       O  0.82137483  0.26916264  0.27732647    -0.74100
O1260       O  0.79864888  0.34521772  0.21925614    -0.74100
O1261       O  0.88316937  0.41011735  0.22230802    -0.74000
O1262       O  0.90653674  0.33341417  0.27882748    -0.74000
O1263       O  0.91020220  0.33726451  0.22200354    -0.74000
O1264       O  0.87902661  0.40561054  0.27976160    -0.74100
Ni1265     Ni  0.80685675  0.30466372  0.24810618     1.25400
Ni1266     Ni  0.89764685  0.37394223  0.25076985     1.25400
C1267       C  0.83209322  0.38294813  0.28915250     0.88200
C1268       C  0.87241372  0.29488004  0.21042335     0.88100
C1269       C  0.86710686  0.29096099  0.28878070     0.88200
C1270       C  0.83819471  0.38883648  0.21007531     0.88300
C1271       C  0.79777058  0.01362925  0.44137207     0.02700
C1272       C  0.76905244  0.45716822  0.44119391     0.02700
C1273       C  0.76959210  0.43008292  0.41702549    -0.17800
C1274       C  0.79513263  0.45883358  0.39263814     0.02700
C1275       C  0.81733246  0.01482245  0.39211008     0.02700
C1276       C  0.82054082  0.04160260  0.41671588    -0.17800
H1277       H  0.83834754  0.08462868  0.41625322     0.04800
H1278       H  0.75127414  0.38705264  0.41739673     0.04800
O1279       O  0.63611595  0.44044782  0.28105350    -0.74000
O1280       O  0.71803117  0.04535541  0.22532775    -0.74000
O1281       O  0.71397989  0.04329899  0.28231438    -0.74100
O1282       O  0.64016486  0.44155766  0.22335622    -0.74100
O1283       O  0.58167307  0.46595538  0.22134105    -0.74000
O1284       O  0.65470289  0.06699425  0.28002231    -0.74000
O1285       O  0.65878740  0.06915121  0.22434862    -0.74000
O1286       O  0.57724784  0.46426676  0.27828732    -0.74100
Ni1287     Ni  0.67915702  0.49158990  0.25302111     1.25400
Ni1288     Ni  0.61589395  0.51712957  0.25088670     1.25400
C1289       C  0.59494008  0.43806484  0.29020753     0.88200
C1290       C  0.70120282  0.07420956  0.21572197     0.88100
C1291       C  0.69542752  0.07073070  0.29122191     0.88200
C1292       C  0.60026211  0.43901000  0.21161298     0.88300
C1293       C  0.83212857  0.02211943  0.05126812     0.02700
C1294       C  0.81044600  0.46560127  0.05185016     0.02700
C1295       C  0.80935903  0.44207908  0.07776955    -0.17800
C1296       C  0.82513250  0.47216763  0.10268360     0.02700
C1297       C  0.84031091  0.02647342  0.10199989     0.02700
C1298       C  0.84598176  0.05103827  0.07634214    -0.17800
H1299       H  0.85806536  0.09283570  0.07602119     0.04800
H1300       H  0.79570861  0.39996548  0.07870994     0.04800
C1301       C  0.64951280  0.17643384  0.43960139     0.02700
C1302       C  0.69661386  0.17596185  0.44216114     0.02700
C1303       C  0.71746385  0.16602879  0.41854170    -0.17800
C1304       C  0.69396591  0.15842449  0.39226348     0.02700
C1305       C  0.64741414  0.15886962  0.38961499     0.02700
C1306       C  0.62524926  0.16633196  0.41311896    -0.17800
H1307       H  0.58992594  0.16728046  0.41004804     0.04800
H1308       H  0.75268102  0.16450553  0.42059311     0.04800
C1309       C  0.71990447  0.18530918  0.06559052     0.02700
C1310       C  0.68724622  0.20640483  0.06532895     0.02700
C1311       C  0.66525583  0.20883454  0.09065671    -0.17800
C1312       C  0.67604639  0.19194672  0.11584604     0.02700
C1313       C  0.71538622  0.17928518  0.11653037     0.02700
C1314       C  0.73812608  0.17857559  0.09148447    -0.17800
H1315       H  0.76786483  0.16832502  0.09191564     0.04800
H1316       H  0.63765674  0.22192241  0.09058281     0.04800
C1317       C  0.95355807  0.29955851  0.44767109     0.02700
C1318       C  0.50990380  0.32816383  0.44628884     0.02700
C1319       C  0.53385904  0.34968285  0.42047929    -0.17800
C1320       C  0.50402406  0.33771513  0.39575767     0.02700
C1321       C  0.94887861  0.30181415  0.39650059     0.02700
C1322       C  0.92435798  0.28599607  0.42239842    -0.17800
H1323       H  0.88180655  0.26113782  0.42259553     0.04800
H1324       H  0.57638915  0.37387733  0.41931896     0.04800
C1325       C  0.51512630  0.30761126  0.05843024     0.02700
C1326       C  0.96041521  0.27079158  0.05713497     0.02700
C1327       C  0.93080496  0.25754332  0.08162563    -0.17800
C1328       C  0.95494574  0.28210191  0.10730066     0.02700
C1329       C  0.50949480  0.32212960  0.10804740     0.02700
C1330       C  0.53904207  0.33364606  0.08371819    -0.17800
H1331       H  0.58114925  0.36215656  0.08465524     0.04800
H1332       H  0.88888420  0.22830407  0.08067881     0.04800
C1333       C  0.59058656  0.38320136  0.33155270    -0.20800
C1334       C  0.56993403  0.40902910  0.31635253    -0.08900
C1335       C  0.52926324  0.41278483  0.32824629     0.30000
C1336       C  0.51056960  0.39197583  0.35457328    -0.20800
C1337       C  0.52999955  0.36493621  0.36936980    -0.08900
C1338       C  0.57063766  0.36103753  0.35780560     0.30000
F1339       F  0.58987627  0.33454814  0.37146096    -0.19400
H1340       H  0.62242213  0.38045138  0.32323144     0.18300
H1341       H  0.97965998  0.39590960  0.36326303     0.18300
F1342       F  0.50773730  0.43732067  0.31479644    -0.19400
C1343       C  0.57420395  0.34983031  0.14808295    -0.20800
C1344       C  0.53546474  0.35408530  0.13377142    -0.08900
C1345       C  0.51886755  0.38643736  0.14503111     0.30000
C1346       C  0.53880854  0.41209240  0.17067925    -0.20800
C1347       C  0.57695291  0.40741683  0.18547544    -0.08900
C1348       C  0.59506469  0.37641741  0.17365106     0.30000
F1349       F  0.63293951  0.37185009  0.18661827    -0.19400
H1350       H  0.58756397  0.32512477  0.13967419     0.18300
H1351       H  0.52484829  0.43653918  0.17869259     0.18300
F1352       F  0.98308908  0.39309580  0.13114261    -0.19400
C1353       C  0.71483373  0.07647564  0.34136294    -0.20800
C1354       C  0.71694838  0.10282602  0.31659967    -0.08900
C1355       C  0.72535052  0.15421990  0.31778616     0.30000
C1356       C  0.72620994  0.17651836  0.34351110    -0.20800
C1357       C  0.71584202  0.14646157  0.36797850    -0.08900
C1358       C  0.71422829  0.09808247  0.36706885     0.30000
F1359       F  0.70443182  0.06821017  0.39041588    -0.19400
H1360       H  0.70644594  0.03607616  0.34066959     0.18300
H1361       H  0.72804238  0.21411670  0.34400225     0.18300
F1362       F  0.72627379  0.17982452  0.29405413    -0.19400
C1363       C  0.73456794  0.18620109  0.16794455    -0.20800
C1364       C  0.72873285  0.16050280  0.14233914    -0.08900
C1365       C  0.72908218  0.11282612  0.14213718     0.30000
C1366       C  0.72922904  0.08878563  0.16717239    -0.20800
C1367       C  0.72691705  0.11063356  0.19250287    -0.08900
C1368       C  0.73218365  0.16073901  0.19290926     0.30000
F1369       F  0.72862277  0.18173973  0.21730888    -0.19400
H1370       H  0.73598724  0.22358976  0.16866534     0.18300
H1371       H  0.72380434  0.04946687  0.16658978     0.18300
F1372       F  0.72243063  0.08565761  0.11808999    -0.19400
C1373       C  0.91107673  0.25967840  0.32097640    -0.20800
C1374       C  0.87373475  0.27366532  0.31645908    -0.08900
C1375       C  0.85379932  0.28641978  0.33946566     0.30000
C1376       C  0.87525879  0.29112290  0.36613026    -0.20800
C1377       C  0.91647126  0.28246176  0.37027968    -0.08900
C1378       C  0.93118783  0.26243042  0.34788069     0.30000
F1379       F  0.46835995  0.25005215  0.35160595    -0.19400
H1380       H  0.92709050  0.25003914  0.30348521     0.18300
H1381       H  0.86287185  0.30610153  0.38299439     0.18300
F1382       F  0.81834577  0.30106673  0.33560211    -0.19400
C1383       C  0.86111064  0.28040090  0.15940139    -0.20800
C1384       C  0.88275081  0.27556141  0.18453306    -0.08900
C1385       C  0.92122752  0.26247115  0.18373627     0.30000
C1386       C  0.94026008  0.25795680  0.15807580    -0.20800
C1387       C  0.92286574  0.26885767  0.13297259    -0.08900
C1388       C  0.88093608  0.27711581  0.13375503     0.30000
F1389       F  0.86345398  0.28831190  0.11005650    -0.19400
H1390       H  0.83220130  0.29169116  0.15967492     0.18300
H1391       H  0.97220185  0.25103184  0.15792258     0.18300
F1392       F  0.94291642  0.25786025  0.20774340    -0.19400
C1393       C  0.85457052  0.45198018  0.35947022    -0.20800
C1394       C  0.80300275  0.43249696  0.36828448    -0.08900
C1395       C  0.76081578  0.39567492  0.35114683     0.30000
C1396       C  0.77040148  0.38062528  0.32519741    -0.20800
C1397       C  0.82218135  0.40206725  0.31578039    -0.08900
C1398       C  0.86426004  0.43752796  0.33356462     0.30000
F1399       F  0.91499734  0.45828896  0.32614683    -0.19400
H1400       H  0.88768689  0.48053450  0.37231331     0.18300
H1401       H  0.73714024  0.35256960  0.31230718     0.18300
F1402       F  0.71053717  0.37713763  0.35860611    -0.19400
C1403       C  0.87551766  0.47321681  0.14463772    -0.20800
C1404       C  0.82803945  0.44789626  0.12936140    -0.08900
C1405       C  0.78305199  0.40432355  0.14128224     0.30000
C1406       C  0.78584961  0.38660593  0.16807169    -0.20800
C1407       C  0.83343739  0.41232205  0.18353116    -0.08900
C1408       C  0.87817296  0.45654217  0.17151788     0.30000
F1409       F  0.92493625  0.48361680  0.18547214    -0.19400
H1410       H  0.91050480  0.00728136  0.13593456     0.18300
H1411       H  0.75082149  0.35233074  0.17657073     0.18300
F1412       F  0.73617696  0.38012666  0.12742153    -0.19400
C1413       C  0.88936302  0.08893680  0.36430779    -0.20800
C1414       C  0.83711010  0.04576123  0.36581002    -0.08900
C1415       C  0.80550743  0.02898336  0.34143874     0.30000
C1416       C  0.82765861  0.05050486  0.31557835    -0.20800
C1417       C  0.88087683  0.09077237  0.31390966    -0.08900
C1418       C  0.91113631  0.11150595  0.33852170     0.30000
F1419       F  0.96321667  0.14953213  0.33730462    -0.19400
H1420       H  0.91430340  0.10262549  0.38280364     0.18300
H1421       H  0.80403131  0.03393740  0.29676086     0.18300
F1422       F  0.75405578  0.48932027  0.34245984    -0.19400
C1423       C  0.91350427  0.12723325  0.15949456    -0.20800
C1424       C  0.88119203  0.09997002  0.18220441    -0.08900
C1425       C  0.83062719  0.05515331  0.17732304     0.30000
C1426       C  0.81456071  0.03559181  0.15018853    -0.20800
C1427       C  0.85026615  0.05790414  0.12808099    -0.08900
C1428       C  0.89860770  0.10613555  0.13258073     0.30000
F1429       F  0.93410671  0.12919542  0.11181788    -0.19400
H1430       H  0.95325397  0.16082328  0.16303355     0.18300
H1431       H  0.77635943  0.99946383  0.14692832     0.18300
F1432       F  0.79910875  0.02719572  0.19895375    -0.19400
C1433       C  0.57126748  0.10352240  0.32199401    -0.20800
C1434       C  0.57147430  0.14819800  0.31138336    -0.08900
C1435       C  0.59877491  0.19683897  0.32631799     0.30000
C1436       C  0.62373865  0.19985007  0.35161195    -0.20800
C1437       C  0.62215593  0.15481126  0.36235236    -0.08900
C1438       C  0.59617236  0.10666986  0.34731425     0.30000
F1439       F  0.59377709  0.06247514  0.35746258    -0.19400
H1440       H  0.55042840  0.06545466  0.31113664     0.18300
H1441       H  0.64407556  0.23733553  0.36304243     0.18300
F1442       F  0.60024314  0.24108812  0.31703981    -0.19400
C1443       C  0.57767665  0.11972514  0.17325487    -0.20800
C1444       C  0.57622464  0.16142548  0.18636652    -0.08900
C1445       C  0.60796015  0.21385300  0.17584126     0.30000
C1446       C  0.64023428  0.22378007  0.15282293    -0.20800
C1447       C  0.64162370  0.18187973  0.14004196    -0.08900
C1448       C  0.60965138  0.12968042  0.15030003     0.30000
F1449       F  0.60886397  0.08806408  0.13782140    -0.19400
H1450       H  0.55343307  0.07893520  0.18051134     0.18300
H1451       H  0.66451728  0.26423044  0.14509055     0.18300
F1452       F  0.60777423  0.25551348  0.18758172    -0.19400
C1453       C  0.89569377  0.29972996  0.82458316    -0.20800
C1454       C  0.92196444  0.35108102  0.81256588    -0.08900
C1455       C  0.92078967  0.39254634  0.82625507     0.30000
C1456       C  0.89424839  0.38269695  0.85132589    -0.20800
C1457       C  0.86742798  0.33130106  0.86293489    -0.08900
C1458       C  0.86860703  0.28986368  0.84956583     0.30000
F1459       F  0.84238606  0.23969842  0.86026607    -0.19400
H1460       H  0.89635538  0.26712268  0.81476638     0.18300
H1461       H  0.89362448  0.41505029  0.86150979     0.18300
F1462       F  0.94576450  0.44280801  0.81572204    -0.19400
C1463       C  0.59913784  0.46078593  0.86324501    -0.20800
C1464       C  0.63815300  0.45426831  0.87464754    -0.08900
C1465       C  0.65414502  0.42377299  0.86035454     0.30000
C1466       C  0.63513156  0.40526031  0.83314977    -0.20800
C1467       C  0.59969785  0.41673855  0.82078957    -0.08900
C1468       C  0.58019030  0.44248932  0.83661807     0.30000
F1469       F  0.54443651  0.95260210  0.82578827    -0.19400
H1470       H  0.58590731  0.98338905  0.87432025     0.18300
H1471       H  0.64989433  0.38478036  0.82141677     0.18300
F1472       F  0.69083673  0.41576149  0.87186316    -0.19400
C1473       C  0.58756495  0.39134218  0.66181715    -0.20800
C1474       C  0.61720680  0.41420258  0.68632044    -0.08900
C1475       C  0.67064338  0.45378967  0.68452457     0.30000
C1476       C  0.69341807  0.47203721  0.65838411    -0.20800
C1477       C  0.66235956  0.45384424  0.63381263    -0.08900
C1478       C  0.60954459  0.41145882  0.63573361     0.30000
F1479       F  0.57770045  0.39315441  0.61279982    -0.19400
H1480       H  0.54590051  0.36138019  0.66297742     0.18300
H1481       H  0.73434070  0.00385366  0.65746066     0.18300
F1482       F  0.69969410  0.97719423  0.70797970    -0.19400
C1483       C  0.92497236  0.39913489  0.67400487    -0.20800
C1484       C  0.92195765  0.35448006  0.68673513    -0.08900
C1485       C  0.88904079  0.30347946  0.67482545     0.30000
C1486       C  0.86143153  0.29794499  0.65012692    -0.20800
C1487       C  0.86583971  0.34288552  0.63729184    -0.08900
C1488       C  0.89744920  0.39348018  0.64939795     0.30000
F1489       F  0.90321856  0.43755131  0.63685005    -0.19400
H1490       H  0.95008678  0.43901403  0.68254056     0.18300
H1491       H  0.83691091  0.25865563  0.64079034     0.18300
F1492       F  0.88409847  0.25924860  0.68666795    -0.19400
C1493       C  0.58362066  0.16580234  0.86395218    -0.20800
C1494       C  0.58653690  0.21317343  0.87102621    -0.10700
C1495       C  0.60929096  0.25616085  0.85218366     0.30000
C1496       C  0.62599641  0.25028227  0.82585275    -0.20800
C1497       C  0.61762059  0.20055145  0.81785083    -0.08900
C1498       C  0.59695095  0.15867394  0.83741177     0.30000
F1499       F  0.58878185  0.11011288  0.83075411    -0.19400
H1500       H  0.56666735  0.13246124  0.87830838     0.18300
H1501       H  0.64263765  0.28329358  0.81130764     0.18300
F1502       F  0.11219546  0.30225841  0.85863737    -0.19400
C1503       C  0.70177926  0.13460550  0.84111673    -0.20800
C1504       C  0.70844757  0.11162597  0.81726527    -0.08900
C1505       C  0.72079942  0.07232526  0.82041597     0.30000
C1506       C  0.72312294  0.05421405  0.84718437    -0.20800
C1507       C  0.70902021  0.07189165  0.87090603    -0.08900
C1508       C  0.70075301  0.11430890  0.86762426     0.30000
F1509       F  0.68777906  0.13365520  0.88961627    -0.19400
H1510       H  0.69363951  0.16603051  0.83902825     0.18300
H1511       H  0.73311383  0.52416455  0.84920308     0.18300
F1512       F  0.72912260  0.05054932  0.79772963    -0.19400
C1513       C  0.74767982  0.12188425  0.67325663    -0.20800
C1514       C  0.69733133  0.10211572  0.68415211    -0.08900
C1515       C  0.65270560  0.06854248  0.66733073     0.30000
C1516       C  0.65831271  0.05434558  0.64074354    -0.20800
C1517       C  0.70795637  0.07000730  0.63076696    -0.08900
C1518       C  0.75306698  0.10529356  0.64672471     0.30000
F1519       F  0.80165378  0.12093516  0.63740825    -0.19400
H1520       H  0.78249655  0.14878482  0.68551281     0.18300
H1521       H  0.62328723  0.52778149  0.62849595     0.18300
F1522       F  0.60320736  0.05082246  0.67604098    -0.19400
C1523       C  0.60584059  0.18492663  0.63235188    -0.20800
C1524       C  0.57011539  0.20153165  0.62995732    -0.08900
C1525       C  0.56072897  0.22320662  0.65380565     0.30000
C1526       C  0.58074692  0.22087967  0.68011340    -0.20800
C1527       C  0.61291237  0.19992782  0.68265475    -0.08900
C1528       C  0.62758881  0.18492619  0.65830974     0.30000
F1529       F  0.66149984  0.16809859  0.65975848    -0.19400
H1530       H  0.61477142  0.16918410  0.61436155     0.18300
H1531       H  0.57012428  0.23413353  0.69847799     0.18300
F1532       F  0.03063656  0.24474909  0.65180067    -0.19400
C1533       C  0.93795447  0.14461633  0.82032982    -0.20800
C1534       C  0.92603240  0.09202864  0.81678137    -0.08900
C1535       C  0.93617928  0.06750377  0.83910755     0.30000
C1536       C  0.95815645  0.09509046  0.86422688    -0.20800
C1537       C  0.97195470  0.14824446  0.86745197    -0.08900
C1538       C  0.96144276  0.17283831  0.84530141     0.30000
F1539       F  0.97390293  0.22406563  0.84784370    -0.19400
H1540       H  0.92996590  0.16413020  0.80358809     0.18300
H1541       H  0.46558163  0.07530696  0.88106157     0.18300
F1542       F  0.92332801  0.01611145  0.83694018    -0.19400
C1543       C  0.77666123  0.41631864  0.83537066    -0.20800
C1544       C  0.77657101  0.39214319  0.81032822    -0.08900
C1545       C  0.77068671  0.34169039  0.81079270     0.30000
C1546       C  0.76909086  0.31780979  0.83623586    -0.20800
C1547       C  0.77733237  0.34590646  0.86129461    -0.08900
C1548       C  0.77848622  0.39423501  0.86074978     0.30000
F1549       F  0.78786873  0.42347885  0.88434054    -0.19400
H1550       H  0.78243900  0.45581668  0.83530702     0.18300
H1551       H  0.76696663  0.28002960  0.83625770     0.18300
F1552       F  0.77219793  0.31840786  0.78676330    -0.19400
C1553       C  0.94848790  0.07310757  0.66833384    -0.20800
C1554       C  0.92185363  0.09088743  0.68444031    -0.08900
C1555       C  0.91023572  0.12725720  0.67256213     0.30000
C1556       C  0.92728120  0.14696046  0.64555520    -0.20800
C1557       C  0.95561675  0.13030200  0.63017817    -0.08900
C1558       C  0.96448118  0.09191979  0.64144435     0.30000
F1559       F  0.48983535  0.07352640  0.62652665    -0.19400
H1560       H  0.95608031  0.04343648  0.67629054     0.18300
H1561       H  0.92025925  0.17669000  0.63707178     0.18300
F1562       F  0.88336341  0.14436158  0.68708537    -0.19400
C1563       C  0.78598525  0.40835522  0.63287455    -0.20800
C1564       C  0.77579386  0.35619534  0.63197446    -0.08900
C1565       C  0.76081097  0.32563926  0.65655751     0.30000
C1566       C  0.76345117  0.34954791  0.68217510    -0.20800
C1567       C  0.77958721  0.40361669  0.68340907    -0.08900
C1568       C  0.78837639  0.43219946  0.65847220     0.30000
F1569       F  0.80698190  0.48531944  0.65917679    -0.19400
H1570       H  0.79819505  0.43266340  0.61422083     0.18300
H1571       H  0.75732026  0.32724055  0.70122500     0.18300
F1572       F  0.74999117  0.27481925  0.65618540    -0.19400
O1573       O  0.88075529  0.80115803  0.97149483    -0.80400
O1574       O  0.87357061  0.59645136  0.02037944    -0.65100
O1575       O  0.86155198  0.69745712  0.97557470    -1.11700
C1576       C  0.73167377  0.66170831  0.04168551     1.06500
O1577       O  0.78849673  0.54263127  0.01716029    -0.78300
O1578       O  0.71597368  0.55940954  0.99878175    -0.65900
Ni1579     Ni  0.92194324  0.76831329  0.97349551     1.34900
C1580       C  0.72735817  0.58098185  0.97502245     0.85200
O1581       O  0.92142997  0.65352044  0.97276305    -0.78900
O1582       O  0.96925801  0.74265761  0.97336167    -0.89100
C1583       C  0.83201693  0.55261330  0.02684191     0.84800
O1584       O  0.92780621  0.77706089  0.01313389    -0.67300
O1585       O  0.72845159  0.61757091  0.04705961    -0.86600
C1586       C  0.93436453  0.74775462  0.02997514     0.85600
C1587       C  0.96041101  0.69797110  0.96442884     1.07200
H1588       H  0.83304561  0.66751875  0.03732519     0.39000
O1589       O  0.81725724  0.64765308  0.02042398    -1.09300
O1590       O  0.75859230  0.63136314  0.97206502    -0.65900
Ni1591     Ni  0.80478190  0.69130430  0.99623219     1.26300
O1592       O  0.92274633  0.70085534  0.02341606    -0.66200
O1593       O  0.75015496  0.68754776  0.01903669    -0.78500
C1594       C  0.83392753  0.78119723  0.96233484     0.85000
O1595       O  0.79636342  0.73583891  0.97043051    -0.65600
Ni1596     Ni  0.75851775  0.58043004  0.03170091     1.27400
Ni1597     Ni  0.86977368  0.64844891  0.99772175     1.26100
H1598       H  0.85053853  0.68351605  0.95697487     0.39500
O1599       O  0.95823445  0.71625566  0.52099782    -0.80400
O1600       O  0.77166988  0.71978554  0.47172832    -0.65100
O1601       O  0.85695197  0.69639569  0.52246886    -1.11700
C1602       C  0.79442290  0.54515396  0.46392726     1.06500
O1603       O  0.70828857  0.64037503  0.48368495    -0.78300
O1604       O  0.71815516  0.56877994  0.51231671    -0.65900
Ni1605     Ni  0.92602689  0.75442427  0.53227382     1.34900
C1606       C  0.74804192  0.56779670  0.53076137     0.85200
O1607       O  0.82574284  0.77124856  0.51798750    -0.78900
O1608       O  0.89615370  0.79410456  0.54502782    -0.89100
C1609       C  0.72450513  0.68120596  0.46853112     0.84800
O1610       O  0.94744264  0.79026160  0.49725158    -0.67300
O1611       O  0.75070928  0.54275290  0.46495542    -0.86600
C1612       C  0.92305091  0.77968728  0.47414071     0.85600
C1613       C  0.85470135  0.79466003  0.53922481     1.07200
H1614       H  0.81747375  0.65739274  0.46034872     0.39000
O1615       O  0.80314786  0.64823347  0.47890320    -1.09300
O1616       O  0.79713858  0.58903587  0.52780810    -0.65900
Ni1617     Ni  0.84885286  0.63691594  0.50153097     1.26300
O1618       O  0.87293083  0.75185011  0.47248536    -0.66200
O1619       O  0.83619112  0.57813298  0.47799992    -0.78500
C1620       C  0.94428854  0.67110936  0.53120081     0.85000
O1621       O  0.89860173  0.63083510  0.52522209    -0.65600
Ni1622     Ni  0.73087703  0.59249105  0.47481661     1.27400
Ni1623     Ni  0.81544407  0.71070503  0.49767002     1.26100
H1624       H  0.83800799  0.68348663  0.53973395     0.39500
O1625       O  0.91997964  0.53902935  0.72276031    -0.74000
O1626       O  0.84037193  0.93063623  0.77578166    -0.74000
O1627       O  0.84261486  0.93664485  0.71978432    -0.74100
O1628       O  0.91813520  0.53350775  0.78008059    -0.74100
O1629       O  0.86142652  0.56041578  0.77970124    -0.74000
O1630       O  0.78296611  0.95981097  0.72033022    -0.74000
O1631       O  0.78280337  0.95647290  0.77777982    -0.74000
O1632       O  0.86062791  0.56245281  0.72194859    -0.74100
Ni1633     Ni  0.88247758  0.48440336  0.74964351     1.25400
Ni1634     Ni  0.81980987  0.51077177  0.75006755     1.25400
C1635       C  0.90082644  0.56461258  0.71158771     0.88200
C1636       C  0.79954156  0.92675742  0.78611738     0.88100
C1637       C  0.80153987  0.93361530  0.70958787     0.88200
C1638       C  0.90120402  0.56136364  0.79060905     0.88300
O1639       O  0.64524224  0.58941712  0.72317712    -0.74000
O1640       O  0.59827401  0.64456874  0.77879918    -0.74000
O1641       O  0.59629021  0.64246097  0.72135239    -0.74100
O1642       O  0.64832742  0.59262959  0.77994143    -0.74100
O1643       O  0.72573130  0.67009776  0.77895873    -0.74000
O1644       O  0.67332256  0.72025661  0.72062688    -0.74000
O1645       O  0.67539389  0.72219625  0.77892536    -0.74000
O1646       O  0.72232890  0.66678592  0.72102153    -0.74100
Ni1647     Ni  0.61937471  0.61471455  0.75083094     1.25400
Ni1648     Ni  0.70204711  0.69775918  0.74985157     1.25400
C1649       C  0.68920027  0.61990640  0.71130559     0.88200
C1650       C  0.63052940  0.69004189  0.78991625     0.88100
C1651       C  0.62751167  0.68806198  0.71013247     0.88200
C1652       C  0.69456016  0.62447179  0.79005403     0.88300
O1653       O  0.58284771  0.94352522  0.77849304    -0.74000
O1654       O  0.98268714  0.91030358  0.72137177    -0.74000
O1655       O  0.98128186  0.90952681  0.77769265    -0.74100
O1656       O  0.58425404  0.94252560  0.72206774    -0.74100
O1657       O  0.56365574  0.85786178  0.72292952    -0.74000
O1658       O  0.95899791  0.82453797  0.77750325    -0.74000
O1659       O  0.96155638  0.82566412  0.72063107    -0.74000
O1660       O  0.56041480  0.85844136  0.78108832    -0.74100
Ni1661     Ni  0.53368672  0.92939187  0.74982698     1.25400
Ni1662     Ni  0.51071550  0.83850943  0.75043401     1.25400
C1663       C  0.58289286  0.90580032  0.79144630     0.88200
C1664       C  0.95637818  0.86329190  0.71099762     0.88100
C1665       C  0.95478258  0.86206491  0.78766622     0.88200
C1666       C  0.58866797  0.90478118  0.71237329     0.88300
C1667       C  0.53415764  0.69583026  0.55244119     0.02700
C1668       C  0.97790600  0.66874289  0.55368506     0.02700
C1669       C  0.95326924  0.64808337  0.57946037    -0.17800
C1670       C  0.98259211  0.65758985  0.60414706     0.02700
C1671       C  0.53808352  0.68953371  0.60364749     0.02700
C1672       C  0.56297564  0.70618271  0.57775750    -0.17800
H1673       H  0.60556695  0.72838767  0.57757600     0.04800
H1674       H  0.91071634  0.62607157  0.58060383     0.04800
C1675       C  0.72412863  0.53904526  0.55662195     0.02700
C1676       C  0.69412600  0.98283378  0.55684686     0.02700
C1677       C  0.67468141  0.95591655  0.58216464    -0.17800
C1678       C  0.68300893  0.98396596  0.60712547     0.02700
C1679       C  0.70969849  0.54065214  0.60634457     0.02700
C1680       C  0.73100174  0.56775073  0.58124225    -0.17800
H1681       H  0.75169913  0.61103384  0.58071405     0.04800
H1682       H  0.65551909  0.91274457  0.58267305     0.04800
C1683       C  0.82514755  0.80679378  0.93823614     0.02700
C1684       C  0.79020807  0.82501794  0.93787053     0.02700
C1685       C  0.77020358  0.82975994  0.91215504    -0.17800
C1686       C  0.79290267  0.82957845  0.88713447     0.02700
C1687       C  0.83484390  0.82090103  0.88777942     0.02700
C1688       C  0.84821789  0.80628065  0.91295033    -0.17800
H1689       H  0.87757024  0.79551493  0.91292499     0.04800
H1690       H  0.73949921  0.83869539  0.91178715     0.04800
C1691       C  0.83638471  0.81763995  0.56056444     0.02700
C1692       C  0.79020737  0.81974552  0.55788117     0.02700
C1693       C  0.77073297  0.83221893  0.58136514    -0.17800
C1694       C  0.79447048  0.84003863  0.60769342     0.02700
C1695       C  0.83943339  0.83684298  0.61032522     0.02700
C1696       C  0.86044959  0.82733321  0.58702498    -0.17800
H1697       H  0.89502740  0.82507835  0.59021942     0.04800
H1698       H  0.73671571  0.83576598  0.57914094     0.04800
C1699       C  0.70472920  0.54629929  0.94954425     0.02700
C1700       C  0.67594696  0.98896284  0.95008164     0.02700
C1701       C  0.65561953  0.96038896  0.92506799    -0.17800
C1702       C  0.66619327  0.98631267  0.89949832     0.02700
C1703       C  0.69784624  0.54283706  0.89819856     0.02700
C1704       C  0.71598581  0.57184240  0.92332362    -0.17800
H1705       H  0.74016154  0.61504479  0.92229466     0.04800
H1706       H  0.63280508  0.91697232  0.92525743     0.04800
C1707       C  0.99464170  0.69898018  0.94234055     0.02700
C1708       C  0.55007088  0.73290883  0.94401370     0.02700
C1709       C  0.58003413  0.73873557  0.92027140    -0.17800
C1710       C  0.55527233  0.71176538  0.89507093     0.02700
C1711       C  0.99973099  0.67827181  0.89354135     0.02700
C1712       C  0.97028599  0.67183332  0.91727945    -0.17800
H1713       H  0.92774106  0.64686640  0.91590080     0.04800
H1714       H  0.62258690  0.76319563  0.92157179     0.04800
O1715       O  0.77934230  0.85343780  0.51538785    -0.80400
O1716       O  0.59109650  0.86580642  0.47305748    -0.65100
O1717       O  0.68592250  0.84808796  0.51960180    -1.11700
C1718       C  0.63110161  0.69936284  0.46088973     1.06500
O1719       O  0.53042668  0.78104222  0.47892042    -0.78300
O1720       O  0.54037371  0.70590243  0.50279788    -0.65900
Ni1721     Ni  0.75843741  0.90278345  0.52337606     1.34900
C1722       C  0.56474268  0.71653381  0.52594807     0.85200
O1723       O  0.65443052  0.91921887  0.51980845    -0.78900
O1724       O  0.73985100  0.95354803  0.53252231    -0.89100
C1725       C  0.54449625  0.82595959  0.46826645     0.84800
O1726       O  0.77187537  0.92557800  0.48565408    -0.67300
O1727       O  0.59022891  0.70085955  0.45480106    -0.86600
C1728       C  0.74292255  0.92735481  0.46687527     0.85600
C1729       C  0.69628274  0.95128221  0.53401094     1.07200
H1730       H  0.64991807  0.81071126  0.45919931     0.39000
O1731       O  0.63119298  0.79890454  0.47657705    -1.09300
O1732       O  0.61480408  0.74497698  0.52755857    -0.65900
Ni1733     Ni  0.67193287  0.78424840  0.50183338     1.26300
O1734       O  0.69364159  0.90684540  0.46969032    -0.66200
O1735       O  0.65971237  0.72213617  0.48234233    -0.78500
C1736       C  0.76240632  0.81356286  0.53132545     0.85000
O1737       O  0.71514835  0.77517522  0.52821407    -0.65600
Ni1738     Ni  0.56138900  0.74150011  0.46759304     1.27400
Ni1739     Ni  0.64102785  0.85987069  0.49661645     1.26100
H1740       H  0.67168991  0.83998571  0.53819300     0.39500
O1741       O  0.71940648  0.96706498  0.98379454    -0.80400
O1742       O  0.71418645  0.77579266  0.03239330    -0.65100
O1743       O  0.69278355  0.86210846  0.98121404    -1.11700
C1744       C  0.54896930  0.81079535  0.03558232     1.06500
O1745       O  0.62979653  0.70982618  0.03270260    -0.78300
O1746       O  0.58472883  0.73137665  0.98852732    -0.65900
Ni1747     Ni  0.75077425  0.92967294  0.97011963     1.34900
C1748       C  0.57648318  0.75862388  0.97101825     0.85200
O1749       O  0.76069395  0.82371479  0.98407789    -0.78900
O1750       O  0.78205950  0.89318451  0.95562201    -0.89100
C1751       C  0.67724984  0.73059657  0.04103639     0.84800
O1752       O  0.79317646  0.95139239  0.00311074    -0.67300
O1753       O  0.54089649  0.76713864  0.02561390    -0.86600
C1754       C  0.78443937  0.93003412  0.02691079     0.85600
C1755       C  0.77907773  0.84929569  0.96141416     1.07200
H1756       H  0.65864895  0.82787382  0.04464205     0.39000
O1757       O  0.64809194  0.81311591  0.02603222    -1.09300
O1758       O  0.58696228  0.80566312  0.97684007    -0.65900
Ni1759     Ni  0.63893925  0.86045272  0.00274045     1.26300
O1760       O  0.75239220  0.87988354  0.03035579    -0.66200
O1761       O  0.58674605  0.85569868  0.02713703    -0.78500
C1762       C  0.67582497  0.95638862  0.97370149     0.85000
O1763       O  0.63471031  0.91135041  0.97923493    -0.65600
Ni1764     Ni  0.58822894  0.74190136  0.02810217     1.27400
Ni1765     Ni  0.70561603  0.81960797  0.00618797     1.26100
H1766       H  0.67777190  0.84179304  0.96423822     0.39500
O1767       O  0.93391865  0.65459372  0.22035695    -0.74000
O1768       O  0.53498854  0.68056683  0.27788028    -0.74000
O1769       O  0.53561041  0.68585388  0.22098414    -0.74100
O1770       O  0.93393883  0.65029896  0.27804178    -0.74100
O1771       O  0.91046116  0.56481343  0.27555953    -0.74000
O1772       O  0.51164215  0.60047391  0.21852231    -0.74000
O1773       O  0.51157125  0.59535184  0.27514042    -0.74000
O1774       O  0.90973414  0.56884709  0.21901849    -0.74100
Ni1775     Ni  0.98520888  0.67088799  0.24937188     1.25400
Ni1776     Ni  0.95993197  0.57938783  0.24694664     1.25400
C1777       C  0.90746490  0.60788953  0.20927956     0.88200
C1778       C  0.53859245  0.64153074  0.28661502     0.88100
C1779       C  0.53976379  0.64886035  0.20992135     0.88200
C1780       C  0.90811824  0.60234046  0.28727924     0.88300
O1781       O  0.79418486  0.84151726  0.27687485    -0.74000
O1782       O  0.82541531  0.77241168  0.21945787    -0.74000
O1783       O  0.82137433  0.76916225  0.27732641    -0.74100
O1784       O  0.79865018  0.84521813  0.21925572    -0.74100
O1785       O  0.88317056  0.91011781  0.22230834    -0.74000
O1786       O  0.90653627  0.83341357  0.27882789    -0.74000
O1787       O  0.91020323  0.83726483  0.22200403    -0.74000
O1788       O  0.87902625  0.90560994  0.27976186    -0.74100
Ni1789     Ni  0.80685711  0.80466367  0.24810592     1.25400
Ni1790     Ni  0.89764718  0.87394211  0.25077024     1.25400
C1791       C  0.83209264  0.88294743  0.28915243     0.88200
C1792       C  0.87241507  0.79488047  0.21042360     0.88100
C1793       C  0.86710612  0.79096037  0.28878090     0.88200
C1794       C  0.83819628  0.88883711  0.21007523     0.88300
C1795       C  0.79777223  0.51362937  0.44137285     0.02700
C1796       C  0.76905085  0.95716810  0.44119325     0.02700
C1797       C  0.76959033  0.93008256  0.41702493    -0.17800
C1798       C  0.79513071  0.95883291  0.39263752     0.02700
C1799       C  0.81733443  0.51482315  0.39211088     0.02700
C1800       C  0.82054286  0.54160303  0.41671680    -0.17800
H1801       H  0.83834957  0.58462912  0.41625426     0.04800
H1802       H  0.75127249  0.88705229  0.41739633     0.04800
O1803       O  0.63611483  0.94044791  0.28105402    -0.74000
O1804       O  0.71803098  0.54535637  0.22532735    -0.74000
O1805       O  0.71398074  0.54329909  0.28231399    -0.74100
O1806       O  0.64016511  0.94155703  0.22335678    -0.74100
O1807       O  0.58167332  0.96595471  0.22134105    -0.74000
O1808       O  0.65470333  0.56699386  0.28002269    -0.74000
O1809       O  0.65878720  0.56915216  0.22434901    -0.74000
O1810       O  0.57724706  0.96426726  0.27828732    -0.74100
Ni1811     Ni  0.67915661  0.99158947  0.25302164     1.25400
Ni1812     Ni  0.61589375  0.01712938  0.25088649     1.25400
C1813       C  0.59493904  0.93806538  0.29020783     0.88200
C1814       C  0.70120264  0.57421089  0.21572210     0.88100
C1815       C  0.69542819  0.57073036  0.29122198     0.88200
C1816       C  0.60026277  0.93900957  0.21161317     0.88300
C1817       C  0.83212602  0.52211880  0.05126874     0.02700
C1818       C  0.81044810  0.96560184  0.05184967     0.02700
C1819       C  0.80936231  0.94207998  0.07776901    -0.17800
C1820       C  0.82513697  0.97216894  0.10268298     0.02700
C1821       C  0.84030614  0.52647205  0.10200064     0.02700
C1822       C  0.84597739  0.55103711  0.07634290    -0.17800
H1823       H  0.85806070  0.59283446  0.07602197     0.04800
H1824       H  0.79571147  0.89996630  0.07870946     0.04800
C1825       C  0.64951260  0.67643370  0.43960154     0.02700
C1826       C  0.69661296  0.67596039  0.44216144     0.02700
C1827       C  0.71746245  0.66602633  0.41854212    -0.17800
C1828       C  0.69396480  0.65842244  0.39226386     0.02700
C1829       C  0.64741379  0.65886893  0.38961523     0.02700
C1830       C  0.62524937  0.66633232  0.41311905    -0.17800
H1831       H  0.58992665  0.66728186  0.41004798     0.04800
H1832       H  0.75267911  0.66450218  0.42059362     0.04800
C1833       C  0.71990562  0.68531096  0.06559077     0.02700
C1834       C  0.68724647  0.70640554  0.06532912     0.02700
C1835       C  0.66525539  0.70883448  0.09065681    -0.17800
C1836       C  0.67604623  0.69194702  0.11584619     0.02700
C1837       C  0.71538728  0.67928713  0.11653065     0.02700
C1838       C  0.73812770  0.67857823  0.09148477    -0.17800
H1839       H  0.76786726  0.66832878  0.09191596     0.04800
H1840       H  0.63765566  0.72192152  0.09058282     0.04800
C1841       C  0.95355746  0.79955878  0.44767110     0.02700
C1842       C  0.50990265  0.82816414  0.44628905     0.02700
C1843       C  0.53385782  0.84968415  0.42047963    -0.17800
C1844       C  0.50402283  0.83771652  0.39575802     0.02700
C1845       C  0.94887795  0.80181508  0.39650069     0.02700
C1846       C  0.92435734  0.78599632  0.42239847    -0.17800
H1847       H  0.88180594  0.76113745  0.42259558     0.04800
H1848       H  0.57638791  0.87387916  0.41931935     0.04800
C1849       C  0.51512738  0.80761179  0.05842999     0.02700
C1850       C  0.96041663  0.77079274  0.05713510     0.02700
C1851       C  0.93080683  0.75754485  0.08162588    -0.17800
C1852       C  0.95494809  0.78210381  0.10730077     0.02700
C1853       C  0.50949711  0.82213082  0.10804715     0.02700
C1854       C  0.53904383  0.83364685  0.08371778    -0.17800
H1855       H  0.58115104  0.86215728  0.08465454     0.04800
H1856       H  0.88888605  0.72830556  0.08067928     0.04800
C1857       C  0.59058630  0.88320382  0.33155356    -0.20800
C1858       C  0.56993293  0.90903021  0.31635292    -0.08900
C1859       C  0.52926135  0.91278513  0.32824625     0.30000
C1860       C  0.51056757  0.89197630  0.35457328    -0.20800
C1861       C  0.52999833  0.86493782  0.36937021    -0.08900
C1862       C  0.57063741  0.86104030  0.35780647     0.30000
F1863       F  0.58987694  0.83455216  0.37146223    -0.19400
H1864       H  0.62242255  0.88045462  0.32323267     0.18300
H1865       H  0.97965728  0.89590950  0.36326267     0.18300
F1866       F  0.50773468  0.93731977  0.31479590    -0.19400
C1867       C  0.57420767  0.84983288  0.14808217    -0.20800
C1868       C  0.53546753  0.85408688  0.13377099    -0.08900
C1869       C  0.51886949  0.88643797  0.14503101     0.30000
C1870       C  0.53880984  0.91209228  0.17067931    -0.20800
C1871       C  0.57695463  0.90741721  0.18547533    -0.08900
C1872       C  0.59506796  0.87641949  0.17365044     0.30000
F1873       F  0.63294375  0.87185332  0.18661734    -0.19400
H1874       H  0.58756861  0.82512837  0.13967306     0.18300
H1875       H  0.52484860  0.93653798  0.17869296     0.18300
F1876       F  0.98308995  0.89309614  0.13114288    -0.19400
C1877       C  0.71483250  0.57647355  0.34136312    -0.20800
C1878       C  0.71694888  0.60282499  0.31659995    -0.08900
C1879       C  0.72535154  0.65421905  0.31778670     0.30000
C1880       C  0.72620985  0.67651671  0.34351169    -0.20800
C1881       C  0.71584071  0.64645921  0.36797891    -0.08900
C1882       C  0.71422612  0.59807969  0.36706909     0.30000
F1883       F  0.70442794  0.56820646  0.39041590    -0.19400
H1884       H  0.70644395  0.53607380  0.34066955     0.18300
H1885       H  0.72804253  0.71411517  0.34400297     0.18300
F1886       F  0.72627612  0.67982455  0.29405477    -0.19400
C1887       C  0.73456770  0.68620315  0.16794495    -0.20800
C1888       C  0.72873457  0.66050563  0.14233953    -0.08900
C1889       C  0.72908588  0.61283001  0.14213769     0.30000
C1890       C  0.72923185  0.58878923  0.16717297    -0.20800
C1891       C  0.72691704  0.61063576  0.19250331    -0.08900
C1892       C  0.73218224  0.66074060  0.19290968     0.30000
F1893       F  0.72861920  0.68174035  0.21730913    -0.19400
H1894       H  0.73598602  0.72359132  0.16866567     0.18300
H1895       H  0.72380855  0.54947109  0.16659035     0.18300
F1896       F  0.72243702  0.58566252  0.11809048    -0.19400
C1897       C  0.91107666  0.75967875  0.32097657    -0.20800
C1898       C  0.87373363  0.77366426  0.31645923    -0.08900
C1899       C  0.85379733  0.78641771  0.33946581     0.30000
C1900       C  0.87525705  0.79112148  0.36613042    -0.20800
C1901       C  0.91647067  0.78246205  0.37027980    -0.08900
C1902       C  0.93118807  0.76243147  0.34788084     0.30000
F1903       F  0.46836102  0.75005399  0.35160641    -0.19400
H1904       H  0.92709111  0.75004030  0.30348539     0.18300
H1905       H  0.86286939  0.80609940  0.38299456     0.18300
F1906       F  0.81834280  0.80106338  0.33560225    -0.19400
C1907       C  0.86111247  0.78040165  0.15940165    -0.20800
C1908       C  0.88275286  0.77556246  0.18453331    -0.08900
C1909       C  0.92123050  0.76247344  0.18373650     0.30000
C1910       C  0.94026320  0.75795933  0.15807602    -0.20800
C1911       C  0.92286845  0.76885977  0.13297283    -0.08900
C1912       C  0.88093840  0.77711733  0.13375530     0.30000
F1913       F  0.86345629  0.78831355  0.11005681    -0.19400
H1914       H  0.83220258  0.79169118  0.15967518     0.18300
H1915       H  0.97220523  0.75103474  0.15792278     0.18300
F1916       F  0.94292001  0.75786339  0.20774363    -0.19400
C1917       C  0.85456899  0.95197953  0.35946998    -0.20800
C1918       C  0.80300112  0.93249605  0.36828412    -0.08900
C1919       C  0.76081432  0.89567333  0.35114660     0.30000
C1920       C  0.77040032  0.88062358  0.32519729    -0.20800
C1921       C  0.82218031  0.90206614  0.31578030    -0.08900
C1922       C  0.86425881  0.93752726  0.33356451     0.30000
F1923       F  0.91499622  0.95828875  0.32614680    -0.19400
H1924       H  0.88768521  0.98053420  0.37231305     0.18300
H1925       H  0.73713924  0.85256742  0.31230712     0.18300
F1926       F  0.71053558  0.87713534  0.35860591    -0.19400
C1927       C  0.87552117  0.97321803  0.14463770    -0.20800
C1928       C  0.82804337  0.94789756  0.12936097    -0.08900
C1929       C  0.78305547  0.90432522  0.14128171     0.30000
C1930       C  0.78585236  0.88660740  0.16807123    -0.20800
C1931       C  0.83343975  0.91232314  0.18353102    -0.08900
C1932       C  0.87817568  0.95654334  0.17151802     0.30000
F1933       F  0.92493848  0.98361806  0.18547274    -0.19400
H1934       H  0.91050101  0.50728012  0.13593436     0.18300
H1935       H  0.75082389  0.85233239  0.17657011     0.18300
F1936       F  0.73618059  0.88012909  0.12742089    -0.19400
C1937       C  0.88936403  0.58893826  0.36430839    -0.20800
C1938       C  0.83711141  0.54576213  0.36581083    -0.08900
C1939       C  0.80550825  0.52898409  0.34143972     0.30000
C1940       C  0.82765891  0.55050530  0.31557921    -0.20800
C1941       C  0.88087704  0.59077298  0.31391025    -0.08900
C1942       C  0.91113670  0.61150742  0.33852219     0.30000
F1943       F  0.96321679  0.64953444  0.33730490    -0.19400
H1944       H  0.91430469  0.60262742  0.38280413     0.18300
H1945       H  0.80403135  0.53393745  0.29676182     0.18300
F1946       F  0.75405493  0.98931950  0.34245856    -0.19400
C1947       C  0.91350273  0.62723216  0.15949483    -0.20800
C1948       C  0.88119144  0.59996945  0.18220507    -0.08900
C1949       C  0.83062625  0.55515287  0.17732427     0.30000
C1950       C  0.81455831  0.53559103  0.15018990    -0.20800
C1951       C  0.85026260  0.55790301  0.12808183    -0.08900
C1952       C  0.89860466  0.60613416  0.13258111     0.30000
F1953       F  0.93410275  0.62919346  0.11181781    -0.19400
H1954       H  0.95325266  0.66082214  0.16303335     0.18300
H1955       H  0.77635680  0.49946312  0.14693015     0.18300
F1956       F  0.79910879  0.52719581  0.19895538    -0.19400
C1957       C  0.57126574  0.60352044  0.32199484    -0.20800
C1958       C  0.57147338  0.64819622  0.31138376    -0.08900
C1959       C  0.59877506  0.69683771  0.32631789     0.30000
C1960       C  0.62373922  0.69984925  0.35161175    -0.20800
C1961       C  0.62215564  0.65481030  0.36235260    -0.08900
C1962       C  0.59617087  0.60666832  0.34731503     0.30000
F1963       F  0.59377446  0.56247340  0.35746397    -0.19400
H1964       H  0.55042572  0.56545230  0.31113788     0.18300
H1965       H  0.64407698  0.73733513  0.36304185     0.18300
F1966       F  0.60024389  0.74108695  0.31703933    -0.19400
C1967       C  0.57767699  0.61972402  0.17325531    -0.20800
C1968       C  0.57622410  0.66142385  0.18636695    -0.08900
C1969       C  0.60795872  0.71385141  0.17584155     0.30000
C1970       C  0.64023277  0.72377903  0.15282311    -0.20800
C1971       C  0.64162310  0.68187922  0.14004211    -0.08900
C1972       C  0.60965166  0.62967984  0.15030032     0.30000
F1973       F  0.60886509  0.58806396  0.13782169    -0.19400
H1974       H  0.55343413  0.57893407  0.18051190     0.18300
H1975       H  0.66451508  0.76422946  0.14509069     0.18300
F1976       F  0.60777199  0.75551148  0.18758199    -0.19400
C1977       C  0.89569409  0.79973030  0.82458268    -0.20800
C1978       C  0.92196423  0.85108121  0.81256524    -0.08900
C1979       C  0.92078999  0.89254664  0.82625461     0.30000
C1980       C  0.89424996  0.88269761  0.85132582    -0.20800
C1981       C  0.86742989  0.83130186  0.86293497    -0.08900
C1982       C  0.86860830  0.78986428  0.84956569     0.30000
F1983       F  0.84238746  0.73969906  0.86026598    -0.19400
H1984       H  0.89635532  0.76712293  0.81476574     0.18300
H1985       H  0.89362642  0.91505109  0.86150981     0.18300
F1986       F  0.94576405  0.94280810  0.81572135    -0.19400
C1987       C  0.59913641  0.96078705  0.86324425    -0.20800
C1988       C  0.63815138  0.95426920  0.87464688    -0.08900
C1989       C  0.65414349  0.92377394  0.86035384     0.30000
C1990       C  0.63513022  0.90526146  0.83314902    -0.20800
C1991       C  0.59969672  0.91673991  0.82078875    -0.08900
C1992       C  0.58018914  0.94249069  0.83661723     0.30000
F1993       F  0.54443747  0.45260053  0.82578921    -0.19400
H1994       H  0.58590881  0.48338797  0.87432101     0.18300
H1995       H  0.64989306  0.88478155  0.82141603     0.18300
F1996       F  0.69083550  0.91576272  0.87186236    -0.19400
C1997       C  0.58756392  0.89134227  0.66181637    -0.20800
C1998       C  0.61720544  0.91420363  0.68631965    -0.08900
C1999       C  0.67064210  0.95379041  0.68452382     0.30000
C2000       C  0.69341709  0.97203696  0.65838337    -0.20800
C2001       C  0.66235880  0.95384356  0.63381183    -0.08900
C2002       C  0.60954392  0.91145785  0.63573278     0.30000
F2003       F  0.57770025  0.89315193  0.61279883    -0.19400
H2004       H  0.54589952  0.86138011  0.66297661     0.18300
H2005       H  0.73434162  0.50385404  0.65746140     0.18300
F2006       F  0.69969550  0.47719291  0.70798049    -0.19400
C2007       C  0.92497415  0.89913591  0.67400329    -0.20800
C2008       C  0.92195734  0.85448071  0.68673437    -0.08900
C2009       C  0.88903855  0.80347967  0.67482560     0.30000
C2010       C  0.86142981  0.79794507  0.65012690    -0.20800
C2011       C  0.86584003  0.84288590  0.63729107    -0.08900
C2012       C  0.89745109  0.89348099  0.64939638     0.30000
F2013       F  0.90322172  0.93755211  0.63684777    -0.19400
H2014       H  0.95009002  0.93901535  0.68253836     0.18300
H2015       H  0.83690765  0.75865537  0.64079093     0.18300
F2016       F  0.88409344  0.75924848  0.68666931    -0.19400
C2017       C  0.58362008  0.66580234  0.86395237    -0.20800
C2018       C  0.58653583  0.71317324  0.87102617    -0.10700
C2019       C  0.60928916  0.75616037  0.85218342     0.30000
C2020       C  0.62599484  0.75028174  0.82585260    -0.20800
C2021       C  0.61761949  0.70055100  0.81785092    -0.08900
C2022       C  0.59695002  0.65867366  0.83741195     0.30000
F2023       F  0.58878070  0.61011247  0.83075439    -0.19400
H2024       H  0.56666719  0.63246147  0.87830871     0.18300
H2025       H  0.64263574  0.78329282  0.81130736     0.18300
F2026       F  0.11219434  0.80225792  0.85863744    -0.19400
C2027       C  0.70177614  0.63460259  0.84111721    -0.20800
C2028       C  0.70844563  0.61162411  0.81726569    -0.08900
C2029       C  0.72079943  0.57232480  0.82041629     0.30000
C2030       C  0.72312366  0.55421383  0.84718468    -0.20800
C2031       C  0.70902019  0.57189057  0.87090641    -0.08900
C2032       C  0.70075065  0.61430623  0.86762469     0.30000
F2033       F  0.68777508  0.63365098  0.88961673    -0.19400
H2034       H  0.69363526  0.66602678  0.83902882     0.18300
H2035       H  0.73311199  0.02416396  0.84920283     0.18300
F2036       F  0.72912402  0.55055011  0.79772990    -0.19400
C2037       C  0.74767960  0.62188379  0.67325735    -0.20800
C2038       C  0.69733093  0.60211559  0.68415247    -0.08900
C2039       C  0.65270548  0.56854326  0.66733072     0.30000
C2040       C  0.65831302  0.55434640  0.64074361    -0.20800
C2041       C  0.70795680  0.57000774  0.63076738    -0.08900
C2042       C  0.75306717  0.60529354  0.64672540     0.30000
F2043       F  0.80165410  0.62093517  0.63740915    -0.19400
H2044       H  0.78249613  0.64878383  0.68551379     0.18300
H2045       H  0.62328670  0.02778020  0.62849615     0.18300
F2046       F  0.60320720  0.55082431  0.67604051    -0.19400
C2047       C  0.60584189  0.68492828  0.63235196    -0.20800
C2048       C  0.57011659  0.70153317  0.62995743    -0.08900
C2049       C  0.56073001  0.72320792  0.65380581     0.30000
C2050       C  0.58074786  0.72088080  0.68011357    -0.20800
C2051       C  0.61291321  0.69992879  0.68265491    -0.08900
C2052       C  0.62758990  0.68492752  0.65830985     0.30000
F2053       F  0.66150091  0.66809988  0.65975855    -0.19400
H2054       H  0.61477282  0.66918592  0.61436159     0.18300
H2055       H  0.57012508  0.73413447  0.69847818     0.18300
F2056       F  0.03063892  0.74475158  0.65180075    -0.19400
C2057       C  0.93795343  0.64461450  0.82033045    -0.20800
C2058       C  0.92603129  0.59202676  0.81678203    -0.08900
C2059       C  0.93617820  0.56750205  0.83910830     0.30000
C2060       C  0.95815597  0.59508914  0.86422750    -0.20800
C2061       C  0.97195438  0.64824324  0.86745250    -0.08900
C2062       C  0.96144198  0.67283674  0.84530196     0.30000
F2063       F  0.97390185  0.72406396  0.84784418    -0.19400
H2064       H  0.92996468  0.66412824  0.80358872     0.18300
H2065       H  0.46558135  0.57530591  0.88106213     0.18300
F2066       F  0.92332621  0.51610948  0.83694117    -0.19400
C2067       C  0.77666339  0.91632012  0.83537113    -0.20800
C2068       C  0.77657314  0.89214482  0.81032862    -0.08900
C2069       C  0.77068894  0.84169207  0.81079294     0.30000
C2070       C  0.76909309  0.81781125  0.83623601    -0.20800
C2071       C  0.77733457  0.84590771  0.86129482    -0.08900
C2072       C  0.77848834  0.89423626  0.86075017     0.30000
F2073       F  0.78787073  0.92347983  0.88434103    -0.19400
H2074       H  0.78244112  0.95581815  0.83530759     0.18300
H2075       H  0.76696888  0.78003108  0.83625773     0.18300
F2076       F  0.77220029  0.81840982  0.78676346    -0.19400
C2077       C  0.94849065  0.57310907  0.66833468    -0.20800
C2078       C  0.92185452  0.59088744  0.68444068    -0.08900
C2079       C  0.91023553  0.62725611  0.67256203     0.30000
C2080       C  0.92728183  0.64695987  0.64555525    -0.20800
C2081       C  0.95561898  0.63030279  0.63017867    -0.08900
C2082       C  0.96448458  0.59192163  0.64144526     0.30000
F2083       F  0.48983951  0.57352857  0.62652757    -0.19400
H2084       H  0.95608400  0.54343882  0.67629168     0.18300
H2085       H  0.92025883  0.67668849  0.63707152     0.18300
F2086       F  0.88336104  0.64435872  0.68708461    -0.19400
C2087       C  0.78598473  0.90835428  0.63287479    -0.20800
C2088       C  0.77579386  0.85619461  0.63197460    -0.08900
C2089       C  0.76081215  0.82563879  0.65655776     0.30000
C2090       C  0.76345289  0.84954754  0.68217543    -0.20800
C2091       C  0.77958796  0.90361607  0.68340940    -0.08900
C2092       C  0.78837608  0.93219850  0.65847250     0.30000
F2093       F  0.80698063  0.98531825  0.65917705    -0.19400
H2094       H  0.79819374  0.93266234  0.61422103     0.18300
H2095       H  0.75732287  0.82724043  0.70122533     0.18300
F2096       F  0.74999284  0.77481896  0.65618563    -0.19400
loop_ 
_geom_bond_atom_site_label_1 
_geom_bond_atom_site_label_2 
_geom_bond_distance 
_geom_bond_site_symmetry_2 
_ccdc_geom_bond_type 
O1           Ni7   1.937       .  S
O1           C22   1.273       .  A
O2          Ni25   1.930   1_554  S
O2           C11   1.272       .  A
O3           Ni7   1.909       .  S
O3          Ni25   1.910       .  S
O3          Ni19   1.907       .  S
O3           H26   0.961       .  S
C4           O21   1.276       .  A
C4           O13   1.280       .  A
C4          C261   1.484       .  S
O5          Ni24   1.906       .  S
O5           C11   1.259       .  A
O6          Ni24   1.902   1_556  S
O6            C8   1.263       .  A
Ni7          O10   1.934       .  S
Ni7          O12   1.912   1_556  S
C8           O18   1.277       .  A
C8          C127   1.499       .  S
O9          Ni25   1.914       .  S
O9           C15   1.276       .  A
O10          C15   1.274       .  A
C11         C245   1.476       .  S
O12          C14   1.270       .  A
O13         Ni24   1.907       .  S
C14          O20   1.275       .  A
C14         C278   1.477       .  S
C15         C135   1.475       .  S
H16          O17   0.960       .  S
O17         Ni25   1.918   1_554  S
O17         Ni19   1.908   1_554  S
O17         Ni24   1.907       .  S
O18         Ni19   1.939       .  S
Ni19         O23   1.913       .  S
Ni19         O21   1.937   1_556  S
O20         Ni25   1.945   1_554  S
C22          O23   1.272       .  A
C22         C111   1.475       .  S
O27         Ni33   1.918       .  S
O27          C48   1.265       .  A
O28         Ni51   1.918       .  S
O28          C37   1.267       .  A
O29         Ni33   1.913       .  S
O29         Ni51   1.914       .  S
O29         Ni45   1.924       .  S
O29          H52   0.966       .  S
C30          O47   1.288       .  A
C30          O39   1.278       .  A
C30         C223   1.468       .  S
O31         Ni50   1.917       .  S
O31          C37   1.264       .  A
O32         Ni50   1.896       .  S
O32          C34   1.263       .  A
Ni33         O36   1.921       .  S
Ni33         O38   1.909       .  S
C34          O44   1.268       .  A
C34         C103   1.463       .  S
O35         Ni51   1.912       .  S
O35          C41   1.270       .  A
O36          C41   1.281       .  A
C37         C254   1.469       .  S
O38          C40   1.265       .  A
O39         Ni50   1.918       .  S
C40          O46   1.276       .  A
C40         C269   1.499       .  S
C41         C119   1.492       .  S
H42          O43   0.967       .  S
O43         Ni51   1.904       .  S
O43         Ni45   1.903       .  S
O43         Ni50   1.910       .  S
O44         Ni45   1.924       .  S
Ni45         O49   1.948       .  S
Ni45         O47   1.931       .  S
O46         Ni51   1.931       .  S
C48          O49   1.279       .  A
C48          C96   1.494       .  S
O53         Ni61   1.904   1_545  S
O53          C63   1.281       .  A
O54        Ni585   1.893       .  S
O54          C64   1.276       .  A
O55        Ni585   1.909       .  S
O55          C65   1.279       .  A
O56         Ni61   1.923   1_545  S
O56          C66   1.283       .  A
O57         Ni62   1.936       .  S
O57          C66   1.284       .  A
O58        Ni586   1.929       .  S
O58          C65   1.282       .  A
O59        Ni586   1.924       .  S
O59          C64   1.282       .  A
O60         Ni62   1.921       .  S
O60          C63   1.282       .  A
Ni61        O578   1.893       .  S
Ni61        O579   1.909       .  S
Ni61        Ni62   2.390   1_565  S
Ni62        O582   1.929   1_545  S
Ni62        O583   1.924   1_545  S
C63         C506   1.479       .  S
C64         C496   1.460       .  S
C65         C519   1.469       .  S
C66         C486   1.488       .  S
O67         Ni75   1.890       .  S
O67          C77   1.276       .  A
O68         Ni75   1.898       .  S
O68          C78   1.278       .  A
O69         Ni75   1.929       .  S
O69          C79   1.283       .  A
O70         Ni75   1.922       .  S
O70          C80   1.282       .  A
O71         Ni76   1.925       .  S
O71          C80   1.281       .  A
O72         Ni76   1.929       .  S
O72          C79   1.282       .  A
O73         Ni76   1.938       .  S
O73          C78   1.284       .  A
O74         Ni76   1.934       .  S
O74          C77   1.284       .  A
Ni75        Ni76   2.389       .  S
C77         C466   1.476       .  S
C78         C449   1.478       .  S
C79         C479   1.482       .  S
C80         C456   1.473       .  S
O81         Ni89   1.881       .  S
O81          C91   1.274       .  A
O82       Ni1137   1.886       .  S
O82          C92   1.275       .  A
O83       Ni1137   1.917       .  S
O83          C93   1.283       .  A
O84         Ni89   1.911       .  S
O84          C94   1.280       .  A
O85         Ni90   1.918       .  S
O85          C94   1.280       .  A
O86       Ni1138   1.907       .  S
O86          C93   1.279       .  A
O87       Ni1138   1.928       .  S
O87          C92   1.285       .  A
O88         Ni90   1.936       .  S
O88          C91   1.284       .  A
Ni89       O1130   1.886   1_455  S
Ni89       O1131   1.917   1_455  S
Ni89        Ni90   2.390       .  S
Ni90       O1134   1.907   1_455  S
Ni90       O1135   1.928   1_455  S
C91         C419   1.466       .  S
C92         C436   1.474       .  S
C93         C406   1.480       .  S
C94         C426   1.464       .  S
C95         C150   1.503       .  S
C95         C100   1.417       .  A
C95        C1144   1.436   1_455  A
C96          C97   1.409       .  A
C96        C1143   1.436       .  A
C97          C98   1.402       .  A
C97         H102   1.085       .  S
C98         C509   1.479       .  S
C98        C1147   1.413       .  A
C99         C476   1.500       .  S
C99         C100   1.404       .  A
C99        C1146   1.413   1_455  A
C100        H101   1.084       .  S
C103        C108   1.403       .  A
C103        C628   1.406   1_545  A
C104        C157   1.464       .  S
C104        C105   1.402       .  A
C104        C627   1.406       .  A
C105        C106   1.400       .  A
C105        H110   1.085       .  S
C106        C429   1.496       .  S
C106        C631   1.421       .  A
C107        C469   1.477       .  S
C107        C108   1.403       .  A
C107        C630   1.421   1_545  A
C108        H109   1.084       .  S
C111        C112   1.411       .  A
C111        C116   1.408       .  A
C112        C183   1.473       .  S
C112        C113   1.403       .  A
C113        C114   1.389       .  A
C113        H118   1.086       .  S
C114        C499   1.485       .  S
C114        C115   1.413       .  A
C115        C409   1.476       .  S
C115        C116   1.404       .  A
C116        H117   1.085       .  S
C119        C120   1.425       .  A
C119        C124   1.404       .  A
C120        C164   1.471       .  S
C120        C121   1.412       .  A
C121        C122   1.399       .  A
C121        H126   1.085       .  S
C122        C516   1.484       .  S
C122        C123   1.407       .  A
C123        C439   1.468       .  S
C123        C124   1.391       .  A
C124        H125   1.084       .  S
C127        C132   1.413       .  A
C127        C652   1.435   1_545  A
C128        C190   1.482       .  S
C128        C129   1.401       .  A
C128        C651   1.435       .  A
C129        C130   1.391       .  A
C129        H134   1.086       .  S
C130        C416   1.469       .  S
C130        C655   1.417       .  A
C131        C459   1.503       .  S
C131        C132   1.405       .  A
C131        C654   1.417   1_545  A
C132        H133   1.083       .  S
C135        C140   1.407       .  A
C135       C1184   1.416       .  A
C136        C176   1.490       .  S
C136        C137   1.413       .  A
C136       C1183   1.416   1_455  A
C137        C138   1.414       .  A
C137        H142   1.084       .  S
C138        C446   1.483       .  S
C138       C1187   1.417   1_455  A
C139        C489   1.496       .  S
C139        C140   1.400       .  A
C139       C1186   1.417       .  A
C140        H141   1.085       .  S
O143       Ni149   1.910       .  S
O143        C164   1.264       .  A
O144       Ni167   1.947       .  S
O144        C153   1.280       .  A
O145       Ni149   1.906       .  S
O145       Ni167   1.900       .  S
O145       Ni161   1.901       .  S
O145        H168   0.967       .  S
C146        O163   1.271       .  A
C146        O155   1.282       .  A
C146        C253   1.491       .  S
O147       Ni166   1.923       .  S
O147        C153   1.267       .  A
O148       Ni166   1.914       .  S
O148        C150   1.266       .  A
Ni149       O152   1.911       .  S
Ni149       O154   1.900       .  S
C150        O160   1.275       .  A
O151       Ni167   1.929       .  S
O151        C157   1.287       .  A
O152        C157   1.277       .  A
C153        C270   1.496       .  S
O154        C156   1.264       .  A
O155       Ni166   1.922       .  S
C156        O162   1.275       .  A
C156        C224   1.480       .  S
H158        O159   0.966       .  S
O159       Ni167   1.921       .  S
O159       Ni161   1.916       .  S
O159       Ni166   1.912       .  S
O160       Ni161   1.934       .  S
Ni161       O165   1.919       .  S
Ni161       O163   1.913       .  S
O162       Ni167   1.949       .  S
C164        O165   1.267       .  A
O169       Ni175   1.914       .  S
O169        C190   1.262       .  A
O170       Ni193   1.912       .  S
O170        C179   1.272       .  A
O171       Ni175   1.902       .  S
O171       Ni193   1.911   1_556  S
O171       Ni187   1.909   1_556  S
O171        H194   0.965       .  S
C172        O189   1.272       .  A
C172        O181   1.272       .  A
C172        C277   1.473       .  S
O173       Ni192   1.938       .  S
O173        C179   1.274       .  A
O174       Ni192   1.916   1_556  S
O174        C176   1.271       .  A
Ni175       O178   1.904       .  S
Ni175       O180   1.902   1_556  S
C176        O186   1.281       .  A
O177       Ni193   1.925   1_556  S
O177        C183   1.274       .  A
O178        C183   1.281       .  A
C179        C262   1.473       .  S
O180        C182   1.263       .  A
O181       Ni192   1.927       .  S
C182        O188   1.278       .  A
C182        C246   1.501       .  S
H184        O185   0.967       .  S
O185       Ni193   1.902       .  S
O185       Ni187   1.915       .  S
O185       Ni192   1.909       .  S
O186       Ni187   1.968   1_556  S
Ni187       O191   1.932   1_554  S
Ni187       O189   1.913       .  S
O188       Ni193   1.948       .  S
C190        O191   1.274       .  A
O195       Ni203   1.923       .  S
O195        C205   1.282       .  A
O196      Ni1251   1.918   1_455  S
O196        C206   1.282       .  A
O197      Ni1251   1.918   1_455  S
O197        C207   1.281       .  A
O198       Ni203   1.920       .  S
O198        C208   1.281       .  A
O199       Ni204   1.909       .  S
O199        C208   1.279       .  A
O200      Ni1252   1.918   1_455  S
O200        C207   1.283       .  A
O201      Ni1252   1.904   1_455  S
O201        C206   1.279       .  A
O202       Ni204   1.901       .  S
O202        C205   1.277       .  A
Ni203      O1244   1.918       .  S
Ni203      O1245   1.918       .  S
Ni203      Ni204   2.389       .  S
Ni204      O1248   1.918       .  S
Ni204      O1249   1.904       .  S
C205        C376   1.463       .  S
C206        C386   1.479       .  S
C207        C396   1.487       .  S
C208        C369   1.464       .  S
O209       Ni217   1.923       .  S
O209        C219   1.282       .  A
O210       Ni217   1.923       .  S
O210        C220   1.280       .  A
O211       Ni217   1.927       .  S
O211        C221   1.282       .  A
O212       Ni217   1.924       .  S
O212        C222   1.283       .  A
O213       Ni218   1.914       .  S
O213        C222   1.281       .  A
O214       Ni218   1.906       .  S
O214        C221   1.278       .  A
O215       Ni218   1.917       .  S
O215        C220   1.280       .  A
O216       Ni218   1.925       .  S
O216        C219   1.284       .  A
Ni217      Ni218   2.386       .  S
C219        C349   1.494       .  S
C220        C336   1.472       .  S
C221        C326   1.469       .  S
C222        C359   1.489       .  S
C223        C228   1.401       .  A
C223        C748   1.412   1_545  A
C224        C225   1.415       .  A
C224        C747   1.412       .  A
C225        C226   1.414       .  A
C225        H230   1.084       .  S
C226        C346   1.494       .  S
C226        C751   1.416       .  A
C227        C366   1.487       .  S
C227        C228   1.396       .  A
C227        C750   1.416   1_545  A
C228        H229   1.085       .  S
O231       Ni239   1.927       .  S
O231        C241   1.284       .  A
O232       Ni763   1.924   1_545  S
O232        C242   1.282       .  A
O233       Ni763   1.917   1_545  S
O233        C243   1.280       .  A
O234       Ni239   1.925       .  S
O234        C244   1.283       .  A
O235       Ni240   1.916       .  S
O235        C244   1.282       .  A
O236       Ni764   1.903       .  S
O236        C243   1.279       .  A
O237       Ni764   1.888       .  S
O237        C242   1.276       .  A
O238       Ni240   1.900       .  S
O238        C241   1.278       .  A
Ni239       O756   1.924       .  S
Ni239       O757   1.917       .  S
Ni239      Ni240   2.389       .  S
Ni240       O760   1.903       .  S
Ni240       O761   1.888       .  S
C241        C286   1.484       .  S
C242        C319   1.457       .  S
C243        C306   1.460       .  S
C244        C299   1.490       .  S
C245        C250   1.401       .  A
C245        C770   1.433   1_545  A
C246        C247   1.414       .  A
C246        C769   1.433       .  A
C247        C248   1.409       .  A
C247        H252   1.084       .  S
C248        C356   1.488       .  S
C248        C773   1.415       .  A
C249        C379   1.489       .  S
C249        C250   1.392       .  A
C249        C772   1.415   1_545  A
C250        H251   1.086       .  S
C253        C254   1.426       .  A
C253        C258   1.407       .  A
C254        C255   1.406       .  A
C255        C256   1.395       .  A
C255        H260   1.086       .  S
C256        C309   1.477       .  S
C256        C257   1.409       .  A
C257        C389   1.475       .  S
C257        C258   1.393       .  A
C258        H259   1.084       .  S
C261        C262   1.414       .  A
C261        C266   1.406       .  A
C262        C263   1.410       .  A
C263        C264   1.404       .  A
C263        H268   1.085       .  S
C264        C399   1.485       .  S
C264        C265   1.416       .  A
C265        C316   1.489       .  S
C265        C266   1.395       .  A
C266        H267   1.085       .  S
C269        C274   1.414       .  A
C269       C1318   1.436       .  A
C270        C271   1.409       .  A
C270       C1317   1.436   1_455  A
C271        C272   1.404       .  A
C271        H276   1.084       .  S
C272        C289   1.486       .  S
C272       C1321   1.415   1_455  A
C273        C329   1.495       .  S
C273        C274   1.399       .  A
C273       C1320   1.415       .  A
C274        H275   1.084       .  S
C277        C282   1.404       .  A
C277       C1326   1.408   1_455  A
C278        C279   1.406       .  A
C278       C1325   1.408       .  A
C279        C280   1.411       .  A
C279        H284   1.084       .  S
C280        C339   1.491       .  S
C280       C1329   1.422       .  A
C281        C296   1.490       .  S
C281        C282   1.403       .  A
C281       C1328   1.422   1_455  A
C282        H283   1.084       .  S
C285        C286   1.409       .  A
C285        C290   1.403       .  A
C285        H292   1.083       .  S
C286        C287   1.412       .  A
C287        C288   1.390       .  A
C287        F294   1.358       .  S
C288        C289   1.401       .  A
C288       H1341   1.084   1_455  S
C289        C290   1.407       .  A
C290        F291   1.357       .  S
H293       C1336   1.084       .  S
C295        C296   1.405       .  A
C295        C300   1.405       .  A
C295        H302   1.083       .  S
C296        C297   1.404       .  A
C297        C298   1.396       .  A
C297       F1352   1.357   1_455  S
C298        C299   1.408       .  A
C298        H303   1.083       .  S
C299        C300   1.413       .  A
C300        F301   1.358       .  S
F304       C1345   1.357       .  S
C305        C306   1.401       .  A
C305        C310   1.394       .  A
C305        H312   1.081       .  S
C306        C307   1.401       .  A
C307        C308   1.393       .  A
C307        F314   1.357       .  S
C308        C309   1.403       .  A
C308        H313   1.082       .  S
C309        C310   1.404       .  A
C310        F311   1.358       .  S
C315        C316   1.404       .  A
C315        C320   1.394       .  A
C315        H322   1.083       .  S
C316        C317   1.414       .  A
C317        C318   1.394       .  A
C317        F324   1.357       .  S
C318        C319   1.397       .  A
C318        H323   1.084       .  S
C319        C320   1.402       .  A
C320        F321   1.358       .  S
C325        C326   1.401       .  A
C325        C330   1.401       .  A
C325        H332   1.083       .  S
C326        C327   1.406       .  A
C327        C328   1.398       .  A
C327        F334   1.356       .  S
C328        C329   1.403       .  A
C328        H333   1.083       .  S
C329        C330   1.412       .  A
C330       F1379   1.357       .  S
F331       C1378   1.357       .  S
C335        C336   1.404       .  A
C335        C340   1.399       .  A
C335        H342   1.083       .  S
C336        C337   1.401       .  A
C337        C338   1.400       .  A
C337        F344   1.357       .  S
C338        C339   1.409       .  A
C338        H343   1.082       .  S
C339        C340   1.405       .  A
C340        F341   1.357       .  S
C345        C346   1.406       .  A
C345        C350   1.398       .  A
C345        H352   1.084       .  S
C346        C347   1.405       .  A
C347        C348   1.406       .  A
C347        F354   1.357       .  S
C348        C349   1.411       .  A
C348        H353   1.083       .  S
C349        C350   1.411       .  A
C350        F351   1.358       .  S
C355        C356   1.404       .  A
C355        C360   1.395       .  A
C355        H886   1.084       .  S
C356        C357   1.405       .  A
C357        C358   1.404       .  A
C357        F364   1.357       .  S
C358        C359   1.411       .  A
C358        H363   1.083       .  S
C359        C360   1.411       .  A
C360        F361   1.358       .  S
H362        C879   1.084   1_545  S
C365        C366   1.403       .  A
C365        C370   1.397       .  A
C365        H372   1.083       .  S
C366        C367   1.409       .  A
C367        C368   1.397       .  A
C367        F898   1.356   1_545  S
C368        C369   1.398       .  A
C368        H373   1.083       .  S
C369        C370   1.406       .  A
C370        F371   1.358       .  S
F374        C891   1.356       .  S
C375        C376   1.402       .  A
C375        C380   1.395       .  A
C375        H382   1.083       .  S
C376        C377   1.402       .  A
C377        C378   1.397       .  A
C377        F384   1.357       .  S
C378        C379   1.408       .  A
C378        H383   1.083   1_545  S
C379        C380   1.406       .  A
C380        F381   1.357       .  S
C385        C386   1.410       .  A
C385        C390   1.394       .  A
C385        H392   1.083       .  S
C386        C387   1.409       .  A
C387        C388   1.395       .  A
C387        F394   1.358       .  S
C388        C389   1.402       .  A
C388        H393   1.084       .  S
C389        C390   1.400       .  A
C390        F391   1.357       .  S
C395        C396   1.406       .  A
C395        C400   1.395       .  A
C395        H402   1.083       .  S
C396        C397   1.413       .  A
C397        C398   1.403       .  A
C397        F404   1.357       .  S
C398        C399   1.403       .  A
C398        H403   1.083       .  S
C399        C400   1.405       .  A
C400        F401   1.357       .  S
C405        C406   1.410       .  A
C405        C410   1.397       .  A
C405        H412   1.083       .  S
C406        C407   1.408       .  A
C407        C408   1.393       .  A
C407        F414   1.357       .  S
C408        C409   1.403       .  A
C408        H413   1.084       .  S
C409        C410   1.401       .  A
C410        F411   1.357       .  S
C415        C416   1.390       .  A
C415        C420   1.380       .  A
C415        H946   1.084       .  S
C416        C417   1.409       .  A
C417        C418   1.407       .  A
C417        F424   1.355       .  S
C418        C419   1.402       .  A
C418        H423   1.083       .  S
C419        C420   1.410       .  A
C420        F945   1.355       .  S
F421        C944   1.355       .  S
H422        C939   1.084       .  S
C425        C426   1.402       .  A
C425        C430   1.397       .  A
C425        H432   1.084       .  S
C426        C427   1.399       .  A
C427        C428   1.398       .  A
C427        F958   1.357       .  S
C428        C429   1.410       .  A
C428        H957   1.081       .  S
C429        C430   1.408       .  A
C430        F431   1.357       .  S
H433        C952   1.081   1_545  S
F434        C951   1.357       .  S
C435        C436   1.410       .  A
C435        C440   1.390       .  A
C435        H442   1.083       .  S
C436        C437   1.406       .  A
C437        C438   1.396       .  A
C437        F444   1.357       .  S
C438        C439   1.403       .  A
C438        H443   1.084       .  S
C439        C440   1.397       .  A
C440        F441   1.358       .  S
C445        C446   1.397       .  A
C445        C450   1.389       .  A
C445        H452   1.083       .  S
C446        C447   1.407       .  A
C447        C448   1.409       .  A
C447       F1502   1.354       .  S
C448        C449   1.406       .  A
C448        H453   1.083       .  S
C449        C450   1.409       .  A
C450        F451   1.358       .  S
F454       C1495   1.354       .  S
C455        C456   1.401       .  A
C455        C460   1.397       .  A
C455        H462   1.082       .  S
C456        C457   1.401       .  A
C457        C458   1.404       .  A
C457        F464   1.357       .  S
C458        C459   1.413       .  A
C458        H987   1.081       .  S
C459        C460   1.409       .  A
C460        F461   1.357       .  S
H463        C982   1.081       .  S
C465        C466   1.407       .  A
C465        C470   1.406       .  A
C465        H472   1.083       .  S
C466        C467   1.412       .  A
C467        C468   1.383       .  A
C467        F474   1.359       .  S
C468        C469   1.396       .  A
C468        H997   1.084       .  S
C469        C470   1.408       .  A
C470        F471   1.357       .  S
H473        C992   1.084       .  S
C475        C476   1.400       .  A
C475        C480   1.398       .  A
C475        H482   1.083       .  S
C476        C477   1.415       .  A
C477        C478   1.407       .  A
C477       F1532   1.357       .  S
C478        C479   1.401       .  A
C478        H483   1.083       .  S
C479        C480   1.406       .  A
C480        F481   1.351       .  S
F484       C1525   1.357       .  S
C485        C486   1.406       .  A
C485        C490   1.409       .  A
C485        H492   1.083       .  S
C486        C487   1.409       .  A
C487        C488   1.401       .  A
C487        F494   1.356       .  S
C488        C489   1.403       .  A
C488       H1541   1.083       .  S
C489        C490   1.409       .  A
C490        F491   1.357       .  S
H493       C1536   1.083       .  S
C495        C496   1.398       .  A
C495        C500   1.393       .  A
C495        H502   1.084       .  S
C496        C497   1.404       .  A
C497        C498   1.396       .  A
C497        F504   1.357       .  S
C498        C499   1.405       .  A
C498        H503   1.083       .  S
C499        C500   1.409       .  A
C500        F501   1.358       .  S
C505        C506   1.406       .  A
C505        C510   1.389       .  A
C505        H512   1.083       .  S
C506        C507   1.410       .  A
C507        C508   1.405       .  A
C507        F514   1.357       .  S
C508        C509   1.405       .  A
C508        H513   1.083       .  S
C509        C510   1.400       .  A
C510       F1559   1.358       .  S
F511       C1558   1.358       .  S
C515        C516   1.402       .  A
C515        C520   1.399       .  A
C515        H522   1.084       .  S
C516        C517   1.407       .  A
C517        C518   1.399       .  A
C517        F524   1.356       .  S
C518        C519   1.402       .  A
C518        H523   1.083       .  S
C519        C520   1.406       .  A
C520        F521   1.357       .  S
O525       Ni531   1.937       .  S
O525        C546   1.273       .  A
O526       Ni549   1.930   1_554  S
O526        C535   1.272       .  A
O527       Ni531   1.909       .  S
O527       Ni549   1.910       .  S
O527       Ni543   1.907       .  S
O527        H550   0.961       .  S
C528        O545   1.276       .  A
C528        O537   1.280       .  A
C528        C785   1.484       .  S
O529       Ni548   1.906       .  S
O529        C535   1.259       .  A
O530       Ni548   1.902   1_556  S
O530        C532   1.263       .  A
Ni531       O534   1.934       .  S
Ni531       O536   1.912   1_556  S
C532        O542   1.277       .  A
C532        C651   1.500       .  S
O533       Ni549   1.914       .  S
O533        C539   1.276       .  A
O534        C539   1.274       .  A
C535        C769   1.476       .  S
O536        C538   1.270       .  A
O537       Ni548   1.907       .  S
C538        O544   1.275       .  A
C538        C802   1.477       .  S
C539        C659   1.475       .  S
H540        O541   0.960       .  S
O541       Ni549   1.918   1_554  S
O541       Ni543   1.908   1_554  S
O541       Ni548   1.907       .  S
O542       Ni543   1.939       .  S
Ni543       O547   1.913       .  S
Ni543       O545   1.937   1_556  S
O544       Ni549   1.945   1_554  S
C546        O547   1.272       .  A
C546        C635   1.475       .  S
O551       Ni557   1.918       .  S
O551        C572   1.265       .  A
O552       Ni575   1.918       .  S
O552        C561   1.267       .  A
O553       Ni557   1.913       .  S
O553       Ni575   1.914       .  S
O553       Ni569   1.924       .  S
O553        H576   0.966       .  S
C554        O571   1.288       .  A
C554        O563   1.278       .  A
C554        C747   1.468       .  S
O555       Ni574   1.917       .  S
O555        C561   1.264       .  A
O556       Ni574   1.896       .  S
O556        C558   1.263       .  A
Ni557       O560   1.921       .  S
Ni557       O562   1.909       .  S
C558        O568   1.268       .  A
C558        C627   1.463       .  S
O559       Ni575   1.912       .  S
O559        C565   1.270       .  A
O560        C565   1.281       .  A
C561        C778   1.469       .  S
O562        C564   1.265       .  A
O563       Ni574   1.918       .  S
C564        O570   1.276       .  A
C564        C793   1.499       .  S
C565        C643   1.492       .  S
H566        O567   0.967       .  S
O567       Ni575   1.904       .  S
O567       Ni569   1.903       .  S
O567       Ni574   1.910       .  S
O568       Ni569   1.924       .  S
Ni569       O573   1.948       .  S
Ni569       O571   1.931       .  S
O570       Ni575   1.931       .  S
C572        O573   1.279       .  A
C572        C620   1.494       .  S
O577       Ni585   1.904       .  S
O577        C587   1.281       .  A
O578        C588   1.276       .  A
O579        C589   1.279       .  A
O580       Ni585   1.923       .  S
O580        C590   1.283       .  A
O581       Ni586   1.936       .  S
O581        C590   1.284       .  A
O582        C589   1.282       .  A
O583        C588   1.282       .  A
O584       Ni586   1.921       .  S
O584        C587   1.282       .  A
Ni585      Ni586   2.390       .  S
C587       C1030   1.479       .  S
C588       C1020   1.460       .  S
C589       C1043   1.469       .  S
C590       C1010   1.488       .  S
O591       Ni599   1.890       .  S
O591        C601   1.276       .  A
O592       Ni599   1.898       .  S
O592        C602   1.278       .  A
O593       Ni599   1.929       .  S
O593        C603   1.283       .  A
O594       Ni599   1.922       .  S
O594        C604   1.282       .  A
O595       Ni600   1.925       .  S
O595        C604   1.281       .  A
O596       Ni600   1.929       .  S
O596        C603   1.282       .  A
O597       Ni600   1.938       .  S
O597        C602   1.284       .  A
O598       Ni600   1.934       .  S
O598        C601   1.284       .  A
Ni599      Ni600   2.389       .  S
C601        C990   1.476       .  S
C602        C973   1.478       .  S
C603       C1003   1.482       .  S
C604        C980   1.473       .  S
O605       Ni613   1.881       .  S
O605        C615   1.274       .  A
O606      Ni1661   1.886       .  S
O606        C616   1.275       .  A
O607      Ni1661   1.917       .  S
O607        C617   1.283       .  A
O608       Ni613   1.911       .  S
O608        C618   1.280       .  A
O609       Ni614   1.918       .  S
O609        C618   1.280       .  A
O610      Ni1662   1.907       .  S
O610        C617   1.279       .  A
O611      Ni1662   1.928       .  S
O611        C616   1.285       .  A
O612       Ni614   1.936       .  S
O612        C615   1.284       .  A
Ni613      O1654   1.886   1_455  S
Ni613      O1655   1.917   1_455  S
Ni613      Ni614   2.390       .  S
Ni614      O1658   1.907   1_455  S
Ni614      O1659   1.928   1_455  S
C615        C943   1.466       .  S
C616        C960   1.474       .  S
C617        C930   1.480       .  S
C618        C950   1.464       .  S
C619        C674   1.503       .  S
C619       C1668   1.436   1_455  A
C619        C624   1.417       .  A
C620       C1667   1.436       .  A
C620        C621   1.409       .  A
C621        C622   1.402       .  A
C621        H626   1.085       .  S
C622       C1033   1.479       .  S
C622       C1671   1.413       .  A
C623       C1000   1.500       .  S
C623       C1670   1.413   1_455  A
C623        C624   1.404       .  A
C624        H625   1.084       .  S
C627        C632   1.403       .  A
C628        C681   1.464       .  S
C628        C629   1.402       .  A
C629        C630   1.400       .  A
C629        H634   1.085       .  S
C630        C953   1.496       .  S
C631        C993   1.477       .  S
C631        C632   1.403       .  A
C632        H633   1.084       .  S
C635        C636   1.411       .  A
C635        C640   1.408       .  A
C636        C707   1.473       .  S
C636        C637   1.403       .  A
C637        C638   1.389       .  A
C637        H642   1.086       .  S
C638       C1023   1.485       .  S
C638        C639   1.413       .  A
C639        C933   1.476       .  S
C639        C640   1.404       .  A
C640        H641   1.085       .  S
C643        C644   1.425       .  A
C643        C648   1.404       .  A
C644        C688   1.471       .  S
C644        C645   1.412       .  A
C645        C646   1.399       .  A
C645        H650   1.085       .  S
C646       C1040   1.484       .  S
C646        C647   1.407       .  A
C647        C963   1.468       .  S
C647        C648   1.391       .  A
C648        H649   1.084       .  S
C651        C656   1.413       .  A
C652        C714   1.482       .  S
C652        C653   1.401       .  A
C653        C654   1.391       .  A
C653        H658   1.086       .  S
C654        C940   1.469       .  S
C655        C983   1.503       .  S
C655        C656   1.405       .  A
C656        H657   1.083       .  S
C659       C1708   1.416       .  A
C659        C664   1.407       .  A
C660        C700   1.490       .  S
C660       C1707   1.416   1_455  A
C660        C661   1.413       .  A
C661        C662   1.414       .  A
C661        H666   1.084       .  S
C662        C970   1.483       .  S
C662       C1711   1.417   1_455  A
C663       C1013   1.496       .  S
C663       C1710   1.417       .  A
C663        C664   1.400       .  A
C664        H665   1.085       .  S
O667       Ni673   1.910       .  S
O667        C688   1.264       .  A
O668       Ni691   1.947       .  S
O668        C677   1.280       .  A
O669       Ni673   1.906       .  S
O669       Ni691   1.900       .  S
O669       Ni685   1.901       .  S
O669        H692   0.967       .  S
C670        O687   1.271       .  A
C670        O679   1.282       .  A
C670        C777   1.491       .  S
O671       Ni690   1.923       .  S
O671        C677   1.267       .  A
O672       Ni690   1.914       .  S
O672        C674   1.266       .  A
Ni673       O676   1.911       .  S
Ni673       O678   1.900       .  S
C674        O684   1.275       .  A
O675       Ni691   1.929       .  S
O675        C681   1.287       .  A
O676        C681   1.277       .  A
C677        C794   1.496       .  S
O678        C680   1.264       .  A
O679       Ni690   1.922       .  S
C680        O686   1.275       .  A
C680        C748   1.480       .  S
H682        O683   0.966       .  S
O683       Ni691   1.921       .  S
O683       Ni685   1.916       .  S
O683       Ni690   1.912       .  S
O684       Ni685   1.934       .  S
Ni685       O689   1.919       .  S
Ni685       O687   1.913       .  S
O686       Ni691   1.949       .  S
C688        O689   1.267       .  A
O693       Ni699   1.914       .  S
O693        C714   1.262       .  A
O694       Ni717   1.912       .  S
O694        C703   1.272       .  A
O695       Ni699   1.902       .  S
O695       Ni717   1.911   1_556  S
O695       Ni711   1.909   1_556  S
O695        H718   0.965       .  S
C696        O713   1.272       .  A
C696        O705   1.272       .  A
C696        C801   1.473       .  S
O697       Ni716   1.938       .  S
O697        C703   1.274       .  A
O698       Ni716   1.916   1_556  S
O698        C700   1.271       .  A
Ni699       O702   1.904       .  S
Ni699       O704   1.902   1_556  S
C700        O710   1.281       .  A
O701       Ni717   1.925   1_556  S
O701        C707   1.274       .  A
O702        C707   1.281       .  A
C703        C786   1.473       .  S
O704        C706   1.263       .  A
O705       Ni716   1.927       .  S
C706        O712   1.278       .  A
C706        C770   1.501       .  S
H708        O709   0.967       .  S
O709       Ni717   1.902       .  S
O709       Ni711   1.915       .  S
O709       Ni716   1.909       .  S
O710       Ni711   1.968   1_556  S
Ni711       O715   1.932   1_554  S
Ni711       O713   1.913       .  S
O712       Ni717   1.948       .  S
C714        O715   1.274       .  A
O719       Ni727   1.923       .  S
O719        C729   1.282       .  A
O720      Ni1775   1.918   1_455  S
O720        C730   1.282       .  A
O721      Ni1775   1.918   1_455  S
O721        C731   1.281       .  A
O722       Ni727   1.920       .  S
O722        C732   1.281       .  A
O723       Ni728   1.909       .  S
O723        C732   1.279       .  A
O724      Ni1776   1.918   1_455  S
O724        C731   1.283       .  A
O725      Ni1776   1.904   1_455  S
O725        C730   1.279       .  A
O726       Ni728   1.901       .  S
O726        C729   1.277       .  A
Ni727      O1768   1.918       .  S
Ni727      O1769   1.918       .  S
Ni727      Ni728   2.389       .  S
Ni728      O1772   1.918       .  S
Ni728      O1773   1.904       .  S
C729        C900   1.463       .  S
C730        C910   1.479       .  S
C731        C920   1.487       .  S
C732        C893   1.464       .  S
O733       Ni741   1.923       .  S
O733        C743   1.282       .  A
O734       Ni741   1.923       .  S
O734        C744   1.280       .  A
O735       Ni741   1.927       .  S
O735        C745   1.282       .  A
O736       Ni741   1.924       .  S
O736        C746   1.283       .  A
O737       Ni742   1.914       .  S
O737        C746   1.281       .  A
O738       Ni742   1.906       .  S
O738        C745   1.278       .  A
O739       Ni742   1.917       .  S
O739        C744   1.280       .  A
O740       Ni742   1.925       .  S
O740        C743   1.284       .  A
Ni741      Ni742   2.386       .  S
C743        C873   1.494       .  S
C744        C860   1.472       .  S
C745        C850   1.469       .  S
C746        C883   1.489       .  S
C747        C752   1.401       .  A
C748        C749   1.415       .  A
C749        C750   1.414       .  A
C749        H754   1.084       .  S
C750        C870   1.494       .  S
C751        C890   1.487       .  S
C751        C752   1.396       .  A
C752        H753   1.085       .  S
O755       Ni763   1.927       .  S
O755        C765   1.284       .  A
O756        C766   1.282       .  A
O757        C767   1.280       .  A
O758       Ni763   1.925       .  S
O758        C768   1.283       .  A
O759       Ni764   1.916   1_565  S
O759        C768   1.282       .  A
O760        C767   1.279       .  A
O761        C766   1.276       .  A
O762       Ni764   1.900   1_565  S
O762        C765   1.278       .  A
Ni763      Ni764   2.389   1_565  S
C765        C810   1.484       .  S
C766        C843   1.457       .  S
C767        C830   1.460       .  S
C768        C823   1.490       .  S
C769        C774   1.401       .  A
C770        C771   1.414       .  A
C771        C772   1.409       .  A
C771        H776   1.084       .  S
C772        C880   1.488       .  S
C773        C903   1.489       .  S
C773        C774   1.392       .  A
C774        H775   1.086       .  S
C777        C778   1.426       .  A
C777        C782   1.407       .  A
C778        C779   1.406       .  A
C779        C780   1.395       .  A
C779        H784   1.086       .  S
C780        C833   1.477       .  S
C780        C781   1.409       .  A
C781        C913   1.475       .  S
C781        C782   1.393       .  A
C782        H783   1.084       .  S
C785        C786   1.414       .  A
C785        C790   1.406       .  A
C786        C787   1.410       .  A
C787        C788   1.404       .  A
C787        H792   1.085       .  S
C788        C923   1.485       .  S
C788        C789   1.416       .  A
C789        C840   1.489       .  S
C789        C790   1.395       .  A
C790        H791   1.085       .  S
C793       C1842   1.436       .  A
C793        C798   1.414       .  A
C794       C1841   1.436   1_455  A
C794        C795   1.409       .  A
C795        C796   1.404       .  A
C795        H800   1.084       .  S
C796        C813   1.486       .  S
C796       C1845   1.415   1_455  A
C797        C853   1.495       .  S
C797       C1844   1.415       .  A
C797        C798   1.399       .  A
C798        H799   1.084       .  S
C801       C1850   1.408   1_455  A
C801        C806   1.404       .  A
C802       C1849   1.408       .  A
C802        C803   1.406       .  A
C803        C804   1.411       .  A
C803        H808   1.084       .  S
C804        C863   1.491       .  S
C804       C1853   1.422       .  A
C805        C820   1.490       .  S
C805       C1852   1.422   1_455  A
C805        C806   1.403       .  A
C806        H807   1.084       .  S
C809        C810   1.409       .  A
C809        C814   1.403       .  A
C809        H816   1.083       .  S
C810        C811   1.412       .  A
C811        C812   1.390       .  A
C811        F818   1.358       .  S
C812        C813   1.401       .  A
C812       H1865   1.084   1_455  S
C813        C814   1.407       .  A
C814        F815   1.357       .  S
H817       C1860   1.084       .  S
C819        C820   1.405       .  A
C819        C824   1.405       .  A
C819        H826   1.083       .  S
C820        C821   1.404       .  A
C821        C822   1.396       .  A
C821       F1876   1.357   1_455  S
C822        C823   1.408       .  A
C822        H827   1.083       .  S
C823        C824   1.413       .  A
C824        F825   1.358       .  S
F828       C1869   1.357       .  S
C829        C830   1.401       .  A
C829        C834   1.394       .  A
C829        H836   1.081       .  S
C830        C831   1.401       .  A
C831        C832   1.393       .  A
C831        F838   1.357       .  S
C832        C833   1.403       .  A
C832        H837   1.082       .  S
C833        C834   1.404       .  A
C834        F835   1.358       .  S
C839        C840   1.404       .  A
C839        C844   1.394       .  A
C839        H846   1.083       .  S
C840        C841   1.414       .  A
C841        C842   1.394       .  A
C841        F848   1.357       .  S
C842        C843   1.397       .  A
C842        H847   1.084       .  S
C843        C844   1.402       .  A
C844        F845   1.358       .  S
C849        C850   1.401       .  A
C849        C854   1.401       .  A
C849        H856   1.083       .  S
C850        C851   1.406       .  A
C851        C852   1.398       .  A
C851        F858   1.356       .  S
C852        C853   1.403       .  A
C852        H857   1.083       .  S
C853        C854   1.412       .  A
C854       F1903   1.357       .  S
F855       C1902   1.357       .  S
C859        C860   1.404       .  A
C859        C864   1.399       .  A
C859        H866   1.083       .  S
C860        C861   1.401       .  A
C861        C862   1.400       .  A
C861        F868   1.357       .  S
C862        C863   1.409       .  A
C862        H867   1.082       .  S
C863        C864   1.405       .  A
C864        F865   1.357       .  S
C869        C870   1.406       .  A
C869        C874   1.398       .  A
C869        H876   1.084       .  S
C870        C871   1.405       .  A
C871        C872   1.406       .  A
C871        F878   1.357       .  S
C872        C873   1.411       .  A
C872        H877   1.083       .  S
C873        C874   1.411       .  A
C874        F875   1.358       .  S
C879        C880   1.404       .  A
C879        C884   1.395       .  A
C880        C881   1.405       .  A
C881        C882   1.404       .  A
C881        F888   1.357       .  S
C882        C883   1.411       .  A
C882        H887   1.083       .  S
C883        C884   1.411       .  A
C884        F885   1.358       .  S
C889        C890   1.403       .  A
C889        C894   1.397       .  A
C889        H896   1.083       .  S
C890        C891   1.409       .  A
C891        C892   1.397       .  A
C892        C893   1.398       .  A
C892        H897   1.083       .  S
C893        C894   1.406       .  A
C894        F895   1.358       .  S
C899        C900   1.402       .  A
C899        C904   1.395       .  A
C899        H906   1.083       .  S
C900        C901   1.402       .  A
C901        C902   1.397       .  A
C901        F908   1.357       .  S
C902        C903   1.408       .  A
C902        H907   1.083       .  S
C903        C904   1.406       .  A
C904        F905   1.357       .  S
C909        C910   1.410       .  A
C909        C914   1.394       .  A
C909        H916   1.083       .  S
C910        C911   1.409       .  A
C911        C912   1.395       .  A
C911        F918   1.358       .  S
C912        C913   1.402       .  A
C912        H917   1.084       .  S
C913        C914   1.400       .  A
C914        F915   1.357       .  S
C919        C920   1.406       .  A
C919        C924   1.395       .  A
C919        H926   1.083       .  S
C920        C921   1.413       .  A
C921        C922   1.403       .  A
C921        F928   1.357       .  S
C922        C923   1.403       .  A
C922        H927   1.083       .  S
C923        C924   1.405       .  A
C924        F925   1.357       .  S
C929        C930   1.410       .  A
C929        C934   1.397       .  A
C929        H936   1.083       .  S
C930        C931   1.408       .  A
C931        C932   1.393       .  A
C931        F938   1.357       .  S
C932        C933   1.403       .  A
C932        H937   1.084       .  S
C933        C934   1.401       .  A
C934        F935   1.357       .  S
C939        C940   1.390       .  A
C939        C944   1.380       .  A
C940        C941   1.409       .  A
C941        C942   1.407       .  A
C941        F948   1.355       .  S
C942        C943   1.402       .  A
C942        H947   1.083       .  S
C943        C944   1.410       .  A
C949        C950   1.402       .  A
C949        C954   1.397       .  A
C949        H956   1.084       .  S
C950        C951   1.399       .  A
C951        C952   1.398       .  A
C952        C953   1.410       .  A
C953        C954   1.408       .  A
C954        F955   1.357       .  S
C959        C960   1.410       .  A
C959        C964   1.390       .  A
C959        H966   1.083       .  S
C960        C961   1.406       .  A
C961        C962   1.396       .  A
C961        F968   1.357       .  S
C962        C963   1.403       .  A
C962        H967   1.084       .  S
C963        C964   1.397       .  A
C964        F965   1.358       .  S
C969        C970   1.397       .  A
C969        C974   1.389       .  A
C969        H976   1.083       .  S
C970        C971   1.407       .  A
C971        C972   1.409       .  A
C971       F2026   1.354       .  S
C972        C973   1.406       .  A
C972        H977   1.083       .  S
C973        C974   1.409       .  A
C974        F975   1.358       .  S
F978       C2019   1.354       .  S
C979        C980   1.401       .  A
C979        C984   1.397       .  A
C979        H986   1.082       .  S
C980        C981   1.401       .  A
C981        C982   1.404       .  A
C981        F988   1.357       .  S
C982        C983   1.413       .  A
C983        C984   1.409       .  A
C984        F985   1.357       .  S
C989        C990   1.407       .  A
C989        C994   1.406       .  A
C989        H996   1.083       .  S
C990        C991   1.412       .  A
C991        C992   1.383       .  A
C991        F998   1.359       .  S
C992        C993   1.396       .  A
C993        C994   1.408       .  A
C994        F995   1.357       .  S
C999       C1000   1.400       .  A
C999       C1004   1.398       .  A
C999       H1006   1.083       .  S
C1000      C1001   1.415       .  A
C1001      C1002   1.407       .  A
C1001      F2056   1.357       .  S
C1002      C1003   1.401       .  A
C1002      H1007   1.083       .  S
C1003      C1004   1.406       .  A
C1004      F1005   1.351       .  S
F1008      C2049   1.357       .  S
C1009      C1010   1.406       .  A
C1009      C1014   1.409       .  A
C1009      H1016   1.083       .  S
C1010      C1011   1.409       .  A
C1011      C1012   1.401       .  A
C1011      F1018   1.356       .  S
C1012      C1013   1.403       .  A
C1012      H2065   1.083       .  S
C1013      C1014   1.409       .  A
C1014      F1015   1.357       .  S
H1017      C2060   1.083       .  S
C1019      C1020   1.398       .  A
C1019      C1024   1.393       .  A
C1019      H1026   1.084       .  S
C1020      C1021   1.404       .  A
C1021      C1022   1.396       .  A
C1021      F1028   1.357       .  S
C1022      C1023   1.405       .  A
C1022      H1027   1.083       .  S
C1023      C1024   1.409       .  A
C1024      F1025   1.358       .  S
C1029      C1030   1.406       .  A
C1029      C1034   1.389       .  A
C1029      H1036   1.083       .  S
C1030      C1031   1.410       .  A
C1031      C1032   1.405       .  A
C1031      F1038   1.357       .  S
C1032      C1033   1.405       .  A
C1032      H1037   1.083       .  S
C1033      C1034   1.400       .  A
C1034      F2083   1.358       .  S
F1035      C2082   1.358       .  S
C1039      C1040   1.402       .  A
C1039      C1044   1.399       .  A
C1039      H1046   1.084       .  S
C1040      C1041   1.407       .  A
C1041      C1042   1.399       .  A
C1041      F1048   1.356       .  S
C1042      C1043   1.402       .  A
C1042      H1047   1.083       .  S
C1043      C1044   1.406       .  A
C1044      F1045   1.357       .  S
O1049     Ni1055   1.937       .  S
O1049      C1070   1.273       .  A
O1050     Ni1073   1.930   1_554  S
O1050      C1059   1.272       .  A
O1051     Ni1055   1.909       .  S
O1051     Ni1073   1.910       .  S
O1051     Ni1067   1.907       .  S
O1051      H1074   0.961       .  S
C1052      O1069   1.276       .  A
C1052      O1061   1.280       .  A
C1052      C1309   1.484       .  S
O1053     Ni1072   1.906       .  S
O1053      C1059   1.259       .  A
O1054     Ni1072   1.902   1_556  S
O1054      C1056   1.263       .  A
Ni1055     O1058   1.934       .  S
Ni1055     O1060   1.912   1_556  S
C1056      O1066   1.277       .  A
C1056      C1175   1.499       .  S
O1057     Ni1073   1.914       .  S
O1057      C1063   1.276       .  A
O1058      C1063   1.274       .  A
C1059      C1293   1.476       .  S
O1060      C1062   1.270       .  A
O1061     Ni1072   1.907       .  S
C1062      O1068   1.275       .  A
C1062      C1326   1.477       .  S
C1063      C1183   1.475       .  S
H1064      O1065   0.960       .  S
O1065     Ni1073   1.918   1_554  S
O1065     Ni1067   1.908   1_554  S
O1065     Ni1072   1.907       .  S
O1066     Ni1067   1.939       .  S
Ni1067     O1071   1.913       .  S
Ni1067     O1069   1.937   1_556  S
O1068     Ni1073   1.945   1_554  S
C1070      O1071   1.272       .  A
C1070      C1159   1.475       .  S
O1075     Ni1081   1.918       .  S
O1075      C1096   1.265       .  A
O1076     Ni1099   1.918       .  S
O1076      C1085   1.267       .  A
O1077     Ni1081   1.913       .  S
O1077     Ni1099   1.914       .  S
O1077     Ni1093   1.924       .  S
O1077      H1100   0.966       .  S
C1078      O1095   1.288       .  A
C1078      O1087   1.278       .  A
C1078      C1271   1.468       .  S
O1079     Ni1098   1.917       .  S
O1079      C1085   1.264       .  A
O1080     Ni1098   1.896       .  S
O1080      C1082   1.263       .  A
Ni1081     O1084   1.921       .  S
Ni1081     O1086   1.909       .  S
C1082      O1092   1.268       .  A
C1082      C1151   1.463       .  S
O1083     Ni1099   1.912       .  S
O1083      C1089   1.270       .  A
O1084      C1089   1.281       .  A
C1085      C1302   1.469       .  S
O1086      C1088   1.265       .  A
O1087     Ni1098   1.918       .  S
C1088      O1094   1.276       .  A
C1088      C1317   1.499       .  S
C1089      C1167   1.492       .  S
H1090      O1091   0.967       .  S
O1091     Ni1099   1.904       .  S
O1091     Ni1093   1.903       .  S
O1091     Ni1098   1.910       .  S
O1092     Ni1093   1.924       .  S
Ni1093     O1097   1.948       .  S
Ni1093     O1095   1.931       .  S
O1094     Ni1099   1.931       .  S
C1096      O1097   1.279       .  A
C1096      C1144   1.494       .  S
O1101     Ni1109   1.904   1_545  S
O1101      C1111   1.281       .  A
O1102     Ni1633   1.893       .  S
O1102      C1112   1.276       .  A
O1103     Ni1633   1.909       .  S
O1103      C1113   1.279       .  A
O1104     Ni1109   1.923   1_545  S
O1104      C1114   1.283       .  A
O1105     Ni1110   1.936       .  S
O1105      C1114   1.284       .  A
O1106     Ni1634   1.929       .  S
O1106      C1113   1.282       .  A
O1107     Ni1634   1.924       .  S
O1107      C1112   1.282       .  A
O1108     Ni1110   1.921       .  S
O1108      C1111   1.282       .  A
Ni1109     O1626   1.893       .  S
Ni1109     O1627   1.909       .  S
Ni1109    Ni1110   2.390   1_565  S
Ni1110     O1630   1.929   1_545  S
Ni1110     O1631   1.924   1_545  S
C1111      C1554   1.479       .  S
C1112      C1544   1.460       .  S
C1113      C1567   1.469       .  S
C1114      C1534   1.488       .  S
O1115     Ni1123   1.890       .  S
O1115      C1125   1.276       .  A
O1116     Ni1123   1.898       .  S
O1116      C1126   1.278       .  A
O1117     Ni1123   1.929       .  S
O1117      C1127   1.283       .  A
O1118     Ni1123   1.922       .  S
O1118      C1128   1.282       .  A
O1119     Ni1124   1.925       .  S
O1119      C1128   1.281       .  A
O1120     Ni1124   1.929       .  S
O1120      C1127   1.282       .  A
O1121     Ni1124   1.938       .  S
O1121      C1126   1.284       .  A
O1122     Ni1124   1.934       .  S
O1122      C1125   1.284       .  A
Ni1123    Ni1124   2.389       .  S
C1125      C1514   1.476       .  S
C1126      C1497   1.478       .  S
C1127      C1527   1.482       .  S
C1128      C1504   1.473       .  S
O1129     Ni1137   1.881       .  S
O1129      C1139   1.274       .  A
O1130      C1140   1.275       .  A
O1131      C1141   1.283       .  A
O1132     Ni1137   1.911       .  S
O1132      C1142   1.280       .  A
O1133     Ni1138   1.918       .  S
O1133      C1142   1.280       .  A
O1134      C1141   1.279       .  A
O1135      C1140   1.285       .  A
O1136     Ni1138   1.936       .  S
O1136      C1139   1.284       .  A
Ni1137    Ni1138   2.390       .  S
C1139      C1467   1.466       .  S
C1140      C1484   1.474       .  S
C1141      C1454   1.480       .  S
C1142      C1474   1.464       .  S
C1143      C1198   1.503       .  S
C1143      C1148   1.417       .  A
C1144      C1145   1.409       .  A
C1145      C1146   1.402       .  A
C1145      H1150   1.085       .  S
C1146      C1557   1.479       .  S
C1147      C1524   1.500       .  S
C1147      C1148   1.404       .  A
C1148      H1149   1.084       .  S
C1151      C1676   1.406   1_545  A
C1151      C1156   1.403       .  A
C1152      C1205   1.464       .  S
C1152      C1675   1.406       .  A
C1152      C1153   1.402       .  A
C1153      C1154   1.400       .  A
C1153      H1158   1.085       .  S
C1154      C1477   1.496       .  S
C1154      C1679   1.421       .  A
C1155      C1517   1.477       .  S
C1155      C1678   1.421   1_545  A
C1155      C1156   1.403       .  A
C1156      H1157   1.084       .  S
C1159      C1160   1.411       .  A
C1159      C1164   1.408       .  A
C1160      C1231   1.473       .  S
C1160      C1161   1.403       .  A
C1161      C1162   1.389       .  A
C1161      H1166   1.086       .  S
C1162      C1547   1.485       .  S
C1162      C1163   1.413       .  A
C1163      C1457   1.476       .  S
C1163      C1164   1.404       .  A
C1164      H1165   1.085       .  S
C1167      C1168   1.425       .  A
C1167      C1172   1.404       .  A
C1168      C1212   1.471       .  S
C1168      C1169   1.412       .  A
C1169      C1170   1.399       .  A
C1169      H1174   1.085       .  S
C1170      C1564   1.484       .  S
C1170      C1171   1.407       .  A
C1171      C1487   1.468       .  S
C1171      C1172   1.391       .  A
C1172      H1173   1.084       .  S
C1175      C1700   1.435   1_545  A
C1175      C1180   1.413       .  A
C1176      C1238   1.482       .  S
C1176      C1699   1.435       .  A
C1176      C1177   1.401       .  A
C1177      C1178   1.391       .  A
C1177      H1182   1.086       .  S
C1178      C1464   1.469       .  S
C1178      C1703   1.417       .  A
C1179      C1507   1.503       .  S
C1179      C1702   1.417   1_545  A
C1179      C1180   1.405       .  A
C1180      H1181   1.083       .  S
C1183      C1188   1.407       .  A
C1184      C1224   1.490       .  S
C1184      C1185   1.413       .  A
C1185      C1186   1.414       .  A
C1185      H1190   1.084       .  S
C1186      C1494   1.483       .  S
C1187      C1537   1.496       .  S
C1187      C1188   1.400       .  A
C1188      H1189   1.085       .  S
O1191     Ni1197   1.910       .  S
O1191      C1212   1.264       .  A
O1192     Ni1215   1.947       .  S
O1192      C1201   1.280       .  A
O1193     Ni1197   1.906       .  S
O1193     Ni1215   1.900       .  S
O1193     Ni1209   1.901       .  S
O1193      H1216   0.967       .  S
C1194      O1211   1.271       .  A
C1194      O1203   1.282       .  A
C1194      C1301   1.491       .  S
O1195     Ni1214   1.923       .  S
O1195      C1201   1.267       .  A
O1196     Ni1214   1.914       .  S
O1196      C1198   1.266       .  A
Ni1197     O1200   1.911       .  S
Ni1197     O1202   1.900       .  S
C1198      O1208   1.275       .  A
O1199     Ni1215   1.929       .  S
O1199      C1205   1.287       .  A
O1200      C1205   1.277       .  A
C1201      C1318   1.496       .  S
O1202      C1204   1.264       .  A
O1203     Ni1214   1.922       .  S
C1204      O1210   1.275       .  A
C1204      C1272   1.480       .  S
H1206      O1207   0.966       .  S
O1207     Ni1215   1.921       .  S
O1207     Ni1209   1.916       .  S
O1207     Ni1214   1.912       .  S
O1208     Ni1209   1.934       .  S
Ni1209     O1213   1.919       .  S
Ni1209     O1211   1.913       .  S
O1210     Ni1215   1.949       .  S
C1212      O1213   1.267       .  A
O1217     Ni1223   1.914       .  S
O1217      C1238   1.262       .  A
O1218     Ni1241   1.912       .  S
O1218      C1227   1.272       .  A
O1219     Ni1223   1.902       .  S
O1219     Ni1241   1.911   1_556  S
O1219     Ni1235   1.909   1_556  S
O1219      H1242   0.965       .  S
C1220      O1237   1.272       .  A
C1220      O1229   1.272       .  A
C1220      C1325   1.473       .  S
O1221     Ni1240   1.938       .  S
O1221      C1227   1.274       .  A
O1222     Ni1240   1.916   1_556  S
O1222      C1224   1.271       .  A
Ni1223     O1226   1.904       .  S
Ni1223     O1228   1.902   1_556  S
C1224      O1234   1.281       .  A
O1225     Ni1241   1.925   1_556  S
O1225      C1231   1.274       .  A
O1226      C1231   1.281       .  A
C1227      C1310   1.473       .  S
O1228      C1230   1.263       .  A
O1229     Ni1240   1.927       .  S
C1230      O1236   1.278       .  A
C1230      C1294   1.501       .  S
H1232      O1233   0.967       .  S
O1233     Ni1241   1.902       .  S
O1233     Ni1235   1.915       .  S
O1233     Ni1240   1.909       .  S
O1234     Ni1235   1.968   1_556  S
Ni1235     O1239   1.932   1_554  S
Ni1235     O1237   1.913       .  S
O1236     Ni1241   1.948       .  S
C1238      O1239   1.274       .  A
O1243     Ni1251   1.923       .  S
O1243      C1253   1.282       .  A
O1244      C1254   1.282       .  A
O1245      C1255   1.281       .  A
O1246     Ni1251   1.920       .  S
O1246      C1256   1.281       .  A
O1247     Ni1252   1.909       .  S
O1247      C1256   1.279       .  A
O1248      C1255   1.283       .  A
O1249      C1254   1.279       .  A
O1250     Ni1252   1.901       .  S
O1250      C1253   1.277       .  A
Ni1251    Ni1252   2.389       .  S
C1253      C1424   1.463       .  S
C1254      C1434   1.479       .  S
C1255      C1444   1.487       .  S
C1256      C1417   1.464       .  S
O1257     Ni1265   1.923       .  S
O1257      C1267   1.282       .  A
O1258     Ni1265   1.923       .  S
O1258      C1268   1.280       .  A
O1259     Ni1265   1.927       .  S
O1259      C1269   1.282       .  A
O1260     Ni1265   1.924       .  S
O1260      C1270   1.283       .  A
O1261     Ni1266   1.914       .  S
O1261      C1270   1.281       .  A
O1262     Ni1266   1.906       .  S
O1262      C1269   1.278       .  A
O1263     Ni1266   1.917       .  S
O1263      C1268   1.280       .  A
O1264     Ni1266   1.925       .  S
O1264      C1267   1.284       .  A
Ni1265    Ni1266   2.386       .  S
C1267      C1397   1.494       .  S
C1268      C1384   1.472       .  S
C1269      C1374   1.469       .  S
C1270      C1407   1.489       .  S
C1271      C1796   1.412   1_545  A
C1271      C1276   1.401       .  A
C1272      C1795   1.412       .  A
C1272      C1273   1.415       .  A
C1273      C1274   1.414       .  A
C1273      H1278   1.084       .  S
C1274      C1394   1.494       .  S
C1274      C1799   1.416       .  A
C1275      C1414   1.487       .  S
C1275      C1798   1.416   1_545  A
C1275      C1276   1.396       .  A
C1276      H1277   1.085       .  S
O1279     Ni1287   1.927       .  S
O1279      C1289   1.284       .  A
O1280     Ni1811   1.924   1_545  S
O1280      C1290   1.282       .  A
O1281     Ni1811   1.917   1_545  S
O1281      C1291   1.280       .  A
O1282     Ni1287   1.925       .  S
O1282      C1292   1.283       .  A
O1283     Ni1288   1.916       .  S
O1283      C1292   1.282       .  A
O1284     Ni1812   1.903       .  S
O1284      C1291   1.279       .  A
O1285     Ni1812   1.888       .  S
O1285      C1290   1.276       .  A
O1286     Ni1288   1.900       .  S
O1286      C1289   1.278       .  A
Ni1287     O1804   1.924       .  S
Ni1287     O1805   1.917       .  S
Ni1287    Ni1288   2.389       .  S
Ni1288     O1808   1.903       .  S
Ni1288     O1809   1.888       .  S
C1289      C1334   1.484       .  S
C1290      C1367   1.457       .  S
C1291      C1354   1.460       .  S
C1292      C1347   1.490       .  S
C1293      C1818   1.433   1_545  A
C1293      C1298   1.401       .  A
C1294      C1817   1.433       .  A
C1294      C1295   1.414       .  A
C1295      C1296   1.409       .  A
C1295      H1300   1.084       .  S
C1296      C1404   1.488       .  S
C1296      C1821   1.415       .  A
C1297      C1427   1.489       .  S
C1297      C1820   1.415   1_545  A
C1297      C1298   1.392       .  A
C1298      H1299   1.086       .  S
C1301      C1302   1.426       .  A
C1301      C1306   1.407       .  A
C1302      C1303   1.406       .  A
C1303      C1304   1.395       .  A
C1303      H1308   1.086       .  S
C1304      C1357   1.477       .  S
C1304      C1305   1.409       .  A
C1305      C1437   1.475       .  S
C1305      C1306   1.393       .  A
C1306      H1307   1.084       .  S
C1309      C1310   1.414       .  A
C1309      C1314   1.406       .  A
C1310      C1311   1.410       .  A
C1311      C1312   1.404       .  A
C1311      H1316   1.085       .  S
C1312      C1447   1.485       .  S
C1312      C1313   1.416       .  A
C1313      C1364   1.489       .  S
C1313      C1314   1.395       .  A
C1314      H1315   1.085       .  S
C1317      C1322   1.414       .  A
C1318      C1319   1.409       .  A
C1319      C1320   1.404       .  A
C1319      H1324   1.084       .  S
C1320      C1337   1.486       .  S
C1321      C1377   1.495       .  S
C1321      C1322   1.399       .  A
C1322      H1323   1.084       .  S
C1325      C1330   1.404       .  A
C1326      C1327   1.406       .  A
C1327      C1328   1.411       .  A
C1327      H1332   1.084       .  S
C1328      C1387   1.491       .  S
C1329      C1344   1.490       .  S
C1329      C1330   1.403       .  A
C1330      H1331   1.084       .  S
C1333      C1334   1.409       .  A
C1333      C1338   1.403       .  A
C1333      H1340   1.083       .  S
C1334      C1335   1.412       .  A
C1335      C1336   1.390       .  A
C1335      F1342   1.358       .  S
C1336      C1337   1.401       .  A
C1337      C1338   1.407       .  A
C1338      F1339   1.357       .  S
C1343      C1344   1.405       .  A
C1343      C1348   1.405       .  A
C1343      H1350   1.083       .  S
C1344      C1345   1.404       .  A
C1345      C1346   1.396       .  A
C1346      C1347   1.408       .  A
C1346      H1351   1.083       .  S
C1347      C1348   1.413       .  A
C1348      F1349   1.358       .  S
C1353      C1354   1.401       .  A
C1353      C1358   1.394       .  A
C1353      H1360   1.081       .  S
C1354      C1355   1.401       .  A
C1355      C1356   1.393       .  A
C1355      F1362   1.357       .  S
C1356      C1357   1.403       .  A
C1356      H1361   1.082       .  S
C1357      C1358   1.404       .  A
C1358      F1359   1.358       .  S
C1363      C1364   1.404       .  A
C1363      C1368   1.394       .  A
C1363      H1370   1.083       .  S
C1364      C1365   1.414       .  A
C1365      C1366   1.394       .  A
C1365      F1372   1.357       .  S
C1366      C1367   1.397       .  A
C1366      H1371   1.084       .  S
C1367      C1368   1.402       .  A
C1368      F1369   1.358       .  S
C1373      C1374   1.401       .  A
C1373      C1378   1.401       .  A
C1373      H1380   1.083       .  S
C1374      C1375   1.406       .  A
C1375      C1376   1.398       .  A
C1375      F1382   1.356       .  S
C1376      C1377   1.403       .  A
C1376      H1381   1.083       .  S
C1377      C1378   1.412       .  A
C1383      C1384   1.404       .  A
C1383      C1388   1.399       .  A
C1383      H1390   1.083       .  S
C1384      C1385   1.401       .  A
C1385      C1386   1.400       .  A
C1385      F1392   1.357       .  S
C1386      C1387   1.409       .  A
C1386      H1391   1.082       .  S
C1387      C1388   1.405       .  A
C1388      F1389   1.357       .  S
C1393      C1394   1.406       .  A
C1393      C1398   1.398       .  A
C1393      H1400   1.084       .  S
C1394      C1395   1.405       .  A
C1395      C1396   1.406       .  A
C1395      F1402   1.357       .  S
C1396      C1397   1.411       .  A
C1396      H1401   1.083       .  S
C1397      C1398   1.411       .  A
C1398      F1399   1.358       .  S
C1403      C1404   1.404       .  A
C1403      C1408   1.395       .  A
C1403      H1934   1.084       .  S
C1404      C1405   1.405       .  A
C1405      C1406   1.404       .  A
C1405      F1412   1.357       .  S
C1406      C1407   1.411       .  A
C1406      H1411   1.083       .  S
C1407      C1408   1.411       .  A
C1408      F1409   1.358       .  S
H1410      C1927   1.084   1_545  S
C1413      C1414   1.403       .  A
C1413      C1418   1.397       .  A
C1413      H1420   1.083       .  S
C1414      C1415   1.409       .  A
C1415      C1416   1.397       .  A
C1415      F1946   1.356   1_545  S
C1416      C1417   1.398       .  A
C1416      H1421   1.083       .  S
C1417      C1418   1.406       .  A
C1418      F1419   1.358       .  S
F1422      C1939   1.356       .  S
C1423      C1424   1.402       .  A
C1423      C1428   1.395       .  A
C1423      H1430   1.083       .  S
C1424      C1425   1.402       .  A
C1425      C1426   1.397       .  A
C1425      F1432   1.357       .  S
C1426      C1427   1.408       .  A
C1426      H1431   1.083   1_545  S
C1427      C1428   1.406       .  A
C1428      F1429   1.357       .  S
C1433      C1434   1.410       .  A
C1433      C1438   1.394       .  A
C1433      H1440   1.083       .  S
C1434      C1435   1.409       .  A
C1435      C1436   1.395       .  A
C1435      F1442   1.358       .  S
C1436      C1437   1.402       .  A
C1436      H1441   1.084       .  S
C1437      C1438   1.400       .  A
C1438      F1439   1.357       .  S
C1443      C1444   1.406       .  A
C1443      C1448   1.395       .  A
C1443      H1450   1.083       .  S
C1444      C1445   1.413       .  A
C1445      C1446   1.403       .  A
C1445      F1452   1.357       .  S
C1446      C1447   1.403       .  A
C1446      H1451   1.083       .  S
C1447      C1448   1.405       .  A
C1448      F1449   1.357       .  S
C1453      C1454   1.410       .  A
C1453      C1458   1.397       .  A
C1453      H1460   1.083       .  S
C1454      C1455   1.408       .  A
C1455      C1456   1.393       .  A
C1455      F1462   1.357       .  S
C1456      C1457   1.403       .  A
C1456      H1461   1.084       .  S
C1457      C1458   1.401       .  A
C1458      F1459   1.357       .  S
C1463      C1464   1.390       .  A
C1463      C1468   1.380       .  A
C1463      H1994   1.084       .  S
C1464      C1465   1.409       .  A
C1465      C1466   1.407       .  A
C1465      F1472   1.355       .  S
C1466      C1467   1.402       .  A
C1466      H1471   1.083       .  S
C1467      C1468   1.410       .  A
C1468      F1993   1.355       .  S
F1469      C1992   1.355       .  S
H1470      C1987   1.084       .  S
C1473      C1474   1.402       .  A
C1473      C1478   1.397       .  A
C1473      H1480   1.084       .  S
C1474      C1475   1.399       .  A
C1475      C1476   1.398       .  A
C1475      F2006   1.357       .  S
C1476      C1477   1.410       .  A
C1476      H2005   1.081       .  S
C1477      C1478   1.408       .  A
C1478      F1479   1.357       .  S
H1481      C2000   1.081   1_545  S
F1482      C1999   1.357       .  S
C1483      C1484   1.410       .  A
C1483      C1488   1.390       .  A
C1483      H1490   1.083       .  S
C1484      C1485   1.406       .  A
C1485      C1486   1.396       .  A
C1485      F1492   1.357       .  S
C1486      C1487   1.403       .  A
C1486      H1491   1.084       .  S
C1487      C1488   1.397       .  A
C1488      F1489   1.358       .  S
C1493      C1494   1.397       .  A
C1493      C1498   1.389       .  A
C1493      H1500   1.083       .  S
C1494      C1495   1.407       .  A
C1495      C1496   1.409       .  A
C1496      C1497   1.406       .  A
C1496      H1501   1.083       .  S
C1497      C1498   1.409       .  A
C1498      F1499   1.358       .  S
C1503      C1504   1.401       .  A
C1503      C1508   1.397       .  A
C1503      H1510   1.082       .  S
C1504      C1505   1.401       .  A
C1505      C1506   1.404       .  A
C1505      F1512   1.357       .  S
C1506      C1507   1.413       .  A
C1506      H2035   1.081       .  S
C1507      C1508   1.409       .  A
C1508      F1509   1.357       .  S
H1511      C2030   1.081       .  S
C1513      C1514   1.407       .  A
C1513      C1518   1.406       .  A
C1513      H1520   1.083       .  S
C1514      C1515   1.412       .  A
C1515      C1516   1.383       .  A
C1515      F1522   1.359       .  S
C1516      C1517   1.396       .  A
C1516      H2045   1.084       .  S
C1517      C1518   1.408       .  A
C1518      F1519   1.357       .  S
H1521      C2040   1.084       .  S
C1523      C1524   1.400       .  A
C1523      C1528   1.398       .  A
C1523      H1530   1.083       .  S
C1524      C1525   1.415       .  A
C1525      C1526   1.407       .  A
C1526      C1527   1.401       .  A
C1526      H1531   1.083       .  S
C1527      C1528   1.406       .  A
C1528      F1529   1.351       .  S
C1533      C1534   1.406       .  A
C1533      C1538   1.409       .  A
C1533      H1540   1.083       .  S
C1534      C1535   1.409       .  A
C1535      C1536   1.401       .  A
C1535      F1542   1.356       .  S
C1536      C1537   1.403       .  A
C1537      C1538   1.409       .  A
C1538      F1539   1.357       .  S
C1543      C1544   1.398       .  A
C1543      C1548   1.393       .  A
C1543      H1550   1.084       .  S
C1544      C1545   1.404       .  A
C1545      C1546   1.396       .  A
C1545      F1552   1.357       .  S
C1546      C1547   1.405       .  A
C1546      H1551   1.083       .  S
C1547      C1548   1.409       .  A
C1548      F1549   1.358       .  S
C1553      C1554   1.406       .  A
C1553      C1558   1.389       .  A
C1553      H1560   1.083       .  S
C1554      C1555   1.410       .  A
C1555      C1556   1.405       .  A
C1555      F1562   1.357       .  S
C1556      C1557   1.405       .  A
C1556      H1561   1.083       .  S
C1557      C1558   1.400       .  A
C1563      C1564   1.402       .  A
C1563      C1568   1.399       .  A
C1563      H1570   1.084       .  S
C1564      C1565   1.407       .  A
C1565      C1566   1.399       .  A
C1565      F1572   1.356       .  S
C1566      C1567   1.402       .  A
C1566      H1571   1.083       .  S
C1567      C1568   1.406       .  A
C1568      F1569   1.357       .  S
O1573     Ni1579   1.937       .  S
O1573      C1594   1.273       .  A
O1574     Ni1597   1.930   1_554  S
O1574      C1583   1.272       .  A
O1575     Ni1579   1.909       .  S
O1575     Ni1597   1.910       .  S
O1575     Ni1591   1.907       .  S
O1575      H1598   0.961       .  S
C1576      O1593   1.276       .  A
C1576      O1585   1.280       .  A
C1576      C1833   1.484       .  S
O1577     Ni1596   1.906       .  S
O1577      C1583   1.259       .  A
O1578     Ni1596   1.902   1_556  S
O1578      C1580   1.263       .  A
Ni1579     O1582   1.934       .  S
Ni1579     O1584   1.912   1_556  S
C1580      O1590   1.277       .  A
C1580      C1699   1.500       .  S
O1581     Ni1597   1.914       .  S
O1581      C1587   1.276       .  A
O1582      C1587   1.274       .  A
C1583      C1817   1.476       .  S
O1584      C1586   1.270       .  A
O1585     Ni1596   1.907       .  S
C1586      O1592   1.275       .  A
C1586      C1850   1.477       .  S
C1587      C1707   1.475       .  S
H1588      O1589   0.960       .  S
O1589     Ni1597   1.918   1_554  S
O1589     Ni1591   1.908   1_554  S
O1589     Ni1596   1.907       .  S
O1590     Ni1591   1.939       .  S
Ni1591     O1595   1.913       .  S
Ni1591     O1593   1.937   1_556  S
O1592     Ni1597   1.945   1_554  S
C1594      O1595   1.272       .  A
C1594      C1683   1.475       .  S
O1599     Ni1605   1.918       .  S
O1599      C1620   1.265       .  A
O1600     Ni1623   1.918       .  S
O1600      C1609   1.267       .  A
O1601     Ni1605   1.913       .  S
O1601     Ni1623   1.914       .  S
O1601     Ni1617   1.924       .  S
O1601      H1624   0.966       .  S
C1602      O1619   1.288       .  A
C1602      O1611   1.278       .  A
C1602      C1795   1.468       .  S
O1603     Ni1622   1.917       .  S
O1603      C1609   1.264       .  A
O1604     Ni1622   1.896       .  S
O1604      C1606   1.263       .  A
Ni1605     O1608   1.921       .  S
Ni1605     O1610   1.909       .  S
C1606      O1616   1.268       .  A
C1606      C1675   1.463       .  S
O1607     Ni1623   1.912       .  S
O1607      C1613   1.270       .  A
O1608      C1613   1.281       .  A
C1609      C1826   1.469       .  S
O1610      C1612   1.265       .  A
O1611     Ni1622   1.918       .  S
C1612      O1618   1.276       .  A
C1612      C1841   1.499       .  S
C1613      C1691   1.492       .  S
H1614      O1615   0.967       .  S
O1615     Ni1623   1.904       .  S
O1615     Ni1617   1.903       .  S
O1615     Ni1622   1.910       .  S
O1616     Ni1617   1.924       .  S
Ni1617     O1621   1.948       .  S
Ni1617     O1619   1.931       .  S
O1618     Ni1623   1.931       .  S
C1620      O1621   1.279       .  A
C1620      C1668   1.494       .  S
O1625     Ni1633   1.904       .  S
O1625      C1635   1.281       .  A
O1626      C1636   1.276       .  A
O1627      C1637   1.279       .  A
O1628     Ni1633   1.923       .  S
O1628      C1638   1.283       .  A
O1629     Ni1634   1.936       .  S
O1629      C1638   1.284       .  A
O1630      C1637   1.282       .  A
O1631      C1636   1.282       .  A
O1632     Ni1634   1.921       .  S
O1632      C1635   1.282       .  A
Ni1633    Ni1634   2.390       .  S
C1635      C2078   1.479       .  S
C1636      C2068   1.460       .  S
C1637      C2091   1.469       .  S
C1638      C2058   1.488       .  S
O1639     Ni1647   1.890       .  S
O1639      C1649   1.276       .  A
O1640     Ni1647   1.898       .  S
O1640      C1650   1.278       .  A
O1641     Ni1647   1.929       .  S
O1641      C1651   1.283       .  A
O1642     Ni1647   1.922       .  S
O1642      C1652   1.282       .  A
O1643     Ni1648   1.925       .  S
O1643      C1652   1.281       .  A
O1644     Ni1648   1.929       .  S
O1644      C1651   1.282       .  A
O1645     Ni1648   1.938       .  S
O1645      C1650   1.284       .  A
O1646     Ni1648   1.934       .  S
O1646      C1649   1.284       .  A
Ni1647    Ni1648   2.389       .  S
C1649      C2038   1.476       .  S
C1650      C2021   1.478       .  S
C1651      C2051   1.482       .  S
C1652      C2028   1.473       .  S
O1653     Ni1661   1.881       .  S
O1653      C1663   1.274       .  A
O1654      C1664   1.275       .  A
O1655      C1665   1.283       .  A
O1656     Ni1661   1.911       .  S
O1656      C1666   1.280       .  A
O1657     Ni1662   1.918       .  S
O1657      C1666   1.280       .  A
O1658      C1665   1.279       .  A
O1659      C1664   1.285       .  A
O1660     Ni1662   1.936       .  S
O1660      C1663   1.284       .  A
Ni1661    Ni1662   2.390       .  S
C1663      C1991   1.466       .  S
C1664      C2008   1.474       .  S
C1665      C1978   1.480       .  S
C1666      C1998   1.464       .  S
C1667      C1722   1.503       .  S
C1667      C1672   1.417       .  A
C1668      C1669   1.409       .  A
C1669      C1670   1.402       .  A
C1669      H1674   1.085       .  S
C1670      C2081   1.479       .  S
C1671      C2048   1.500       .  S
C1671      C1672   1.404       .  A
C1672      H1673   1.084       .  S
C1675      C1680   1.403       .  A
C1676      C1729   1.464       .  S
C1676      C1677   1.402       .  A
C1677      C1678   1.400       .  A
C1677      H1682   1.085       .  S
C1678      C2001   1.496       .  S
C1679      C2041   1.477       .  S
C1679      C1680   1.403       .  A
C1680      H1681   1.084       .  S
C1683      C1684   1.411       .  A
C1683      C1688   1.408       .  A
C1684      C1755   1.473       .  S
C1684      C1685   1.403       .  A
C1685      C1686   1.389       .  A
C1685      H1690   1.086       .  S
C1686      C2071   1.485       .  S
C1686      C1687   1.413       .  A
C1687      C1981   1.476       .  S
C1687      C1688   1.404       .  A
C1688      H1689   1.085       .  S
C1691      C1692   1.425       .  A
C1691      C1696   1.404       .  A
C1692      C1736   1.471       .  S
C1692      C1693   1.412       .  A
C1693      C1694   1.399       .  A
C1693      H1698   1.085       .  S
C1694      C2088   1.484       .  S
C1694      C1695   1.407       .  A
C1695      C2011   1.468       .  S
C1695      C1696   1.391       .  A
C1696      H1697   1.084       .  S
C1699      C1704   1.413       .  A
C1700      C1762   1.482       .  S
C1700      C1701   1.401       .  A
C1701      C1702   1.391       .  A
C1701      H1706   1.086       .  S
C1702      C1988   1.469       .  S
C1703      C2031   1.503       .  S
C1703      C1704   1.405       .  A
C1704      H1705   1.083       .  S
C1707      C1712   1.407       .  A
C1708      C1748   1.490       .  S
C1708      C1709   1.413       .  A
C1709      C1710   1.414       .  A
C1709      H1714   1.084       .  S
C1710      C2018   1.483       .  S
C1711      C2061   1.496       .  S
C1711      C1712   1.400       .  A
C1712      H1713   1.085       .  S
O1715     Ni1721   1.910       .  S
O1715      C1736   1.264       .  A
O1716     Ni1739   1.947       .  S
O1716      C1725   1.280       .  A
O1717     Ni1721   1.906       .  S
O1717     Ni1739   1.900       .  S
O1717     Ni1733   1.901       .  S
O1717      H1740   0.967       .  S
C1718      O1735   1.271       .  A
C1718      O1727   1.282       .  A
C1718      C1825   1.491       .  S
O1719     Ni1738   1.923       .  S
O1719      C1725   1.267       .  A
O1720     Ni1738   1.914       .  S
O1720      C1722   1.266       .  A
Ni1721     O1724   1.911       .  S
Ni1721     O1726   1.900       .  S
C1722      O1732   1.275       .  A
O1723     Ni1739   1.929       .  S
O1723      C1729   1.287       .  A
O1724      C1729   1.277       .  A
C1725      C1842   1.496       .  S
O1726      C1728   1.264       .  A
O1727     Ni1738   1.922       .  S
C1728      O1734   1.275       .  A
C1728      C1796   1.480       .  S
H1730      O1731   0.966       .  S
O1731     Ni1739   1.921       .  S
O1731     Ni1733   1.916       .  S
O1731     Ni1738   1.912       .  S
O1732     Ni1733   1.934       .  S
Ni1733     O1737   1.919       .  S
Ni1733     O1735   1.913       .  S
O1734     Ni1739   1.949       .  S
C1736      O1737   1.267       .  A
O1741     Ni1747   1.914       .  S
O1741      C1762   1.262       .  A
O1742     Ni1765   1.912       .  S
O1742      C1751   1.272       .  A
O1743     Ni1747   1.902       .  S
O1743     Ni1765   1.911   1_556  S
O1743     Ni1759   1.909   1_556  S
O1743      H1766   0.965       .  S
C1744      O1761   1.272       .  A
C1744      O1753   1.272       .  A
C1744      C1849   1.473       .  S
O1745     Ni1764   1.938       .  S
O1745      C1751   1.274       .  A
O1746     Ni1764   1.916   1_556  S
O1746      C1748   1.271       .  A
Ni1747     O1750   1.904       .  S
Ni1747     O1752   1.902   1_556  S
C1748      O1758   1.281       .  A
O1749     Ni1765   1.925   1_556  S
O1749      C1755   1.274       .  A
O1750      C1755   1.281       .  A
C1751      C1834   1.473       .  S
O1752      C1754   1.263       .  A
O1753     Ni1764   1.927       .  S
C1754      O1760   1.278       .  A
C1754      C1818   1.501       .  S
H1756      O1757   0.967       .  S
O1757     Ni1765   1.902       .  S
O1757     Ni1759   1.915       .  S
O1757     Ni1764   1.909       .  S
O1758     Ni1759   1.968   1_556  S
Ni1759     O1763   1.932   1_554  S
Ni1759     O1761   1.913       .  S
O1760     Ni1765   1.948       .  S
C1762      O1763   1.274       .  A
O1767     Ni1775   1.923       .  S
O1767      C1777   1.282       .  A
O1768      C1778   1.282       .  A
O1769      C1779   1.281       .  A
O1770     Ni1775   1.920       .  S
O1770      C1780   1.281       .  A
O1771     Ni1776   1.909       .  S
O1771      C1780   1.279       .  A
O1772      C1779   1.283       .  A
O1773      C1778   1.279       .  A
O1774     Ni1776   1.901       .  S
O1774      C1777   1.277       .  A
Ni1775    Ni1776   2.389       .  S
C1777      C1948   1.463       .  S
C1778      C1958   1.479       .  S
C1779      C1968   1.487       .  S
C1780      C1941   1.464       .  S
O1781     Ni1789   1.923       .  S
O1781      C1791   1.282       .  A
O1782     Ni1789   1.923       .  S
O1782      C1792   1.280       .  A
O1783     Ni1789   1.927       .  S
O1783      C1793   1.282       .  A
O1784     Ni1789   1.924       .  S
O1784      C1794   1.283       .  A
O1785     Ni1790   1.914       .  S
O1785      C1794   1.281       .  A
O1786     Ni1790   1.906       .  S
O1786      C1793   1.278       .  A
O1787     Ni1790   1.917       .  S
O1787      C1792   1.280       .  A
O1788     Ni1790   1.925       .  S
O1788      C1791   1.284       .  A
Ni1789    Ni1790   2.386       .  S
C1791      C1921   1.494       .  S
C1792      C1908   1.472       .  S
C1793      C1898   1.469       .  S
C1794      C1931   1.489       .  S
C1795      C1800   1.401       .  A
C1796      C1797   1.415       .  A
C1797      C1798   1.414       .  A
C1797      H1802   1.084       .  S
C1798      C1918   1.494       .  S
C1799      C1938   1.487       .  S
C1799      C1800   1.396       .  A
C1800      H1801   1.085       .  S
O1803     Ni1811   1.927       .  S
O1803      C1813   1.284       .  A
O1804      C1814   1.282       .  A
O1805      C1815   1.280       .  A
O1806     Ni1811   1.925       .  S
O1806      C1816   1.283       .  A
O1807     Ni1812   1.916   1_565  S
O1807      C1816   1.282       .  A
O1808      C1815   1.279       .  A
O1809      C1814   1.276       .  A
O1810     Ni1812   1.900   1_565  S
O1810      C1813   1.278       .  A
Ni1811    Ni1812   2.389   1_565  S
C1813      C1858   1.484       .  S
C1814      C1891   1.457       .  S
C1815      C1878   1.460       .  S
C1816      C1871   1.490       .  S
C1817      C1822   1.401       .  A
C1818      C1819   1.414       .  A
C1819      C1820   1.409       .  A
C1819      H1824   1.084       .  S
C1820      C1928   1.488       .  S
C1821      C1951   1.489       .  S
C1821      C1822   1.392       .  A
C1822      H1823   1.086       .  S
C1825      C1826   1.426       .  A
C1825      C1830   1.407       .  A
C1826      C1827   1.406       .  A
C1827      C1828   1.395       .  A
C1827      H1832   1.086       .  S
C1828      C1881   1.477       .  S
C1828      C1829   1.409       .  A
C1829      C1961   1.475       .  S
C1829      C1830   1.393       .  A
C1830      H1831   1.084       .  S
C1833      C1834   1.414       .  A
C1833      C1838   1.406       .  A
C1834      C1835   1.410       .  A
C1835      C1836   1.404       .  A
C1835      H1840   1.085       .  S
C1836      C1971   1.485       .  S
C1836      C1837   1.416       .  A
C1837      C1888   1.489       .  S
C1837      C1838   1.395       .  A
C1838      H1839   1.085       .  S
C1841      C1846   1.414       .  A
C1842      C1843   1.409       .  A
C1843      C1844   1.404       .  A
C1843      H1848   1.084       .  S
C1844      C1861   1.486       .  S
C1845      C1901   1.495       .  S
C1845      C1846   1.399       .  A
C1846      H1847   1.084       .  S
C1849      C1854   1.404       .  A
C1850      C1851   1.406       .  A
C1851      C1852   1.411       .  A
C1851      H1856   1.084       .  S
C1852      C1911   1.491       .  S
C1853      C1868   1.490       .  S
C1853      C1854   1.403       .  A
C1854      H1855   1.084       .  S
C1857      C1858   1.409       .  A
C1857      C1862   1.403       .  A
C1857      H1864   1.083       .  S
C1858      C1859   1.412       .  A
C1859      C1860   1.390       .  A
C1859      F1866   1.358       .  S
C1860      C1861   1.401       .  A
C1861      C1862   1.407       .  A
C1862      F1863   1.357       .  S
C1867      C1868   1.405       .  A
C1867      C1872   1.405       .  A
C1867      H1874   1.083       .  S
C1868      C1869   1.404       .  A
C1869      C1870   1.396       .  A
C1870      C1871   1.408       .  A
C1870      H1875   1.083       .  S
C1871      C1872   1.413       .  A
C1872      F1873   1.358       .  S
C1877      C1878   1.401       .  A
C1877      C1882   1.394       .  A
C1877      H1884   1.081       .  S
C1878      C1879   1.401       .  A
C1879      C1880   1.393       .  A
C1879      F1886   1.357       .  S
C1880      C1881   1.403       .  A
C1880      H1885   1.082       .  S
C1881      C1882   1.404       .  A
C1882      F1883   1.358       .  S
C1887      C1888   1.404       .  A
C1887      C1892   1.394       .  A
C1887      H1894   1.083       .  S
C1888      C1889   1.414       .  A
C1889      C1890   1.394       .  A
C1889      F1896   1.357       .  S
C1890      C1891   1.397       .  A
C1890      H1895   1.084       .  S
C1891      C1892   1.402       .  A
C1892      F1893   1.358       .  S
C1897      C1898   1.401       .  A
C1897      C1902   1.401       .  A
C1897      H1904   1.083       .  S
C1898      C1899   1.406       .  A
C1899      C1900   1.398       .  A
C1899      F1906   1.356       .  S
C1900      C1901   1.403       .  A
C1900      H1905   1.083       .  S
C1901      C1902   1.412       .  A
C1907      C1908   1.404       .  A
C1907      C1912   1.399       .  A
C1907      H1914   1.083       .  S
C1908      C1909   1.401       .  A
C1909      C1910   1.400       .  A
C1909      F1916   1.357       .  S
C1910      C1911   1.409       .  A
C1910      H1915   1.082       .  S
C1911      C1912   1.405       .  A
C1912      F1913   1.357       .  S
C1917      C1918   1.406       .  A
C1917      C1922   1.398       .  A
C1917      H1924   1.084       .  S
C1918      C1919   1.405       .  A
C1919      C1920   1.406       .  A
C1919      F1926   1.357       .  S
C1920      C1921   1.411       .  A
C1920      H1925   1.083       .  S
C1921      C1922   1.411       .  A
C1922      F1923   1.358       .  S
C1927      C1928   1.404       .  A
C1927      C1932   1.395       .  A
C1928      C1929   1.405       .  A
C1929      C1930   1.404       .  A
C1929      F1936   1.357       .  S
C1930      C1931   1.411       .  A
C1930      H1935   1.083       .  S
C1931      C1932   1.411       .  A
C1932      F1933   1.358       .  S
C1937      C1938   1.403       .  A
C1937      C1942   1.397       .  A
C1937      H1944   1.083       .  S
C1938      C1939   1.409       .  A
C1939      C1940   1.397       .  A
C1940      C1941   1.398       .  A
C1940      H1945   1.083       .  S
C1941      C1942   1.406       .  A
C1942      F1943   1.358       .  S
C1947      C1948   1.402       .  A
C1947      C1952   1.395       .  A
C1947      H1954   1.083       .  S
C1948      C1949   1.402       .  A
C1949      C1950   1.397       .  A
C1949      F1956   1.357       .  S
C1950      C1951   1.408       .  A
C1950      H1955   1.083       .  S
C1951      C1952   1.406       .  A
C1952      F1953   1.357       .  S
C1957      C1958   1.410       .  A
C1957      C1962   1.394       .  A
C1957      H1964   1.083       .  S
C1958      C1959   1.409       .  A
C1959      C1960   1.395       .  A
C1959      F1966   1.358       .  S
C1960      C1961   1.402       .  A
C1960      H1965   1.084       .  S
C1961      C1962   1.400       .  A
C1962      F1963   1.357       .  S
C1967      C1968   1.406       .  A
C1967      C1972   1.395       .  A
C1967      H1974   1.083       .  S
C1968      C1969   1.413       .  A
C1969      C1970   1.403       .  A
C1969      F1976   1.357       .  S
C1970      C1971   1.403       .  A
C1970      H1975   1.083       .  S
C1971      C1972   1.405       .  A
C1972      F1973   1.357       .  S
C1977      C1978   1.410       .  A
C1977      C1982   1.397       .  A
C1977      H1984   1.083       .  S
C1978      C1979   1.408       .  A
C1979      C1980   1.393       .  A
C1979      F1986   1.357       .  S
C1980      C1981   1.403       .  A
C1980      H1985   1.084       .  S
C1981      C1982   1.401       .  A
C1982      F1983   1.357       .  S
C1987      C1988   1.390       .  A
C1987      C1992   1.380       .  A
C1988      C1989   1.409       .  A
C1989      C1990   1.407       .  A
C1989      F1996   1.355       .  S
C1990      C1991   1.402       .  A
C1990      H1995   1.083       .  S
C1991      C1992   1.410       .  A
C1997      C1998   1.402       .  A
C1997      C2002   1.397       .  A
C1997      H2004   1.084       .  S
C1998      C1999   1.399       .  A
C1999      C2000   1.398       .  A
C2000      C2001   1.410       .  A
C2001      C2002   1.408       .  A
C2002      F2003   1.357       .  S
C2007      C2008   1.410       .  A
C2007      C2012   1.390       .  A
C2007      H2014   1.083       .  S
C2008      C2009   1.406       .  A
C2009      C2010   1.396       .  A
C2009      F2016   1.357       .  S
C2010      C2011   1.403       .  A
C2010      H2015   1.084       .  S
C2011      C2012   1.397       .  A
C2012      F2013   1.358       .  S
C2017      C2018   1.397       .  A
C2017      C2022   1.389       .  A
C2017      H2024   1.083       .  S
C2018      C2019   1.407       .  A
C2019      C2020   1.409       .  A
C2020      C2021   1.406       .  A
C2020      H2025   1.083       .  S
C2021      C2022   1.409       .  A
C2022      F2023   1.358       .  S
C2027      C2028   1.401       .  A
C2027      C2032   1.397       .  A
C2027      H2034   1.082       .  S
C2028      C2029   1.401       .  A
C2029      C2030   1.404       .  A
C2029      F2036   1.357       .  S
C2030      C2031   1.413       .  A
C2031      C2032   1.409       .  A
C2032      F2033   1.357       .  S
C2037      C2038   1.407       .  A
C2037      C2042   1.406       .  A
C2037      H2044   1.083       .  S
C2038      C2039   1.412       .  A
C2039      C2040   1.383       .  A
C2039      F2046   1.359       .  S
C2040      C2041   1.396       .  A
C2041      C2042   1.408       .  A
C2042      F2043   1.357       .  S
C2047      C2048   1.400       .  A
C2047      C2052   1.398       .  A
C2047      H2054   1.083       .  S
C2048      C2049   1.415       .  A
C2049      C2050   1.407       .  A
C2050      C2051   1.401       .  A
C2050      H2055   1.083       .  S
C2051      C2052   1.406       .  A
C2052      F2053   1.351       .  S
C2057      C2058   1.406       .  A
C2057      C2062   1.409       .  A
C2057      H2064   1.083       .  S
C2058      C2059   1.409       .  A
C2059      C2060   1.401       .  A
C2059      F2066   1.356       .  S
C2060      C2061   1.403       .  A
C2061      C2062   1.409       .  A
C2062      F2063   1.357       .  S
C2067      C2068   1.398       .  A
C2067      C2072   1.393       .  A
C2067      H2074   1.084       .  S
C2068      C2069   1.404       .  A
C2069      C2070   1.396       .  A
C2069      F2076   1.357       .  S
C2070      C2071   1.405       .  A
C2070      H2075   1.083       .  S
C2071      C2072   1.409       .  A
C2072      F2073   1.358       .  S
C2077      C2078   1.406       .  A
C2077      C2082   1.389       .  A
C2077      H2084   1.083       .  S
C2078      C2079   1.410       .  A
C2079      C2080   1.405       .  A
C2079      F2086   1.357       .  S
C2080      C2081   1.405       .  A
C2080      H2085   1.083       .  S
C2081      C2082   1.400       .  A
C2087      C2088   1.402       .  A
C2087      C2092   1.399       .  A
C2087      H2094   1.084       .  S
C2088      C2089   1.407       .  A
C2089      C2090   1.399       .  A
C2089      F2096   1.356       .  S
C2090      C2091   1.402       .  A
C2090      H2095   1.083       .  S
C2091      C2092   1.406       .  A
C2092      F2093   1.357       .  S
