geometry optimzed in LAMMPS
_audit_creation_date              2020-11-30 
_audit_creation_method            'lammps2cif' 
_symmetry_space_group_name_H-M    'P1' 
_symmetry_Int_Tables_number       1 
_symmetry_cell_setting            triclinic 
loop_ 
_symmetry_equiv_pos_as_xyz 
  x,y,z 
_cell_length_a                    25.39007598282499 
_cell_length_b                    25.604794296280566 
_cell_length_c                    30.823085604567634 
_cell_angle_alpha                 90.37455847674734 
_cell_angle_beta                  89.07092175412915 
_cell_angle_gamma                 122.85981981383948 
loop_ 
_atom_site_label 
_atom_site_type_symbol 
_atom_site_fract_x 
_atom_site_fract_y 
_atom_site_fract_z 
_atom_site_charge 
C1          C  0.19059273  0.31674874  0.33312023     0.00030
C2          C  0.36507936  0.14487883  0.12154500     0.00030
C3          C  0.17900255  0.31226675  0.14254800     0.00030
C4          C  0.36823913  0.14018339  0.31386563     0.00030
O5          O  0.36949466  0.46166282  0.42450537    -0.77610
O6          O  0.01158515  0.32370870  0.03072801    -0.79170
O7          O  0.40061522  0.29907739  0.41302416    -0.76190
O8          O  0.34272740  0.34858262  0.04077417    -0.74570
O9          O  0.40306512  0.41175119  0.09653303    -0.76360
O10         O  0.96526118  0.36236241  0.35777209    -0.77290
O11         O  0.40880415  0.28170086  0.51435390    -0.78620
O12         O  0.32927695  0.35950975  0.43957196    -0.78910
Eu13       Eu  0.41389438  0.36572619  0.47722996     2.39200
O14         O  0.49387061  0.39918794  0.02755005    -0.86420
O15         O  0.44656562  0.44521198  0.42625547    -0.90020
C16         C  0.32906678  0.40267359  0.41924061     1.04670
C17         C  0.45206315  0.28292863  0.03578204     1.04490
C18         C  0.42520681  0.30806650  0.37434450     1.04430
C19         C  0.34933778  0.37172985  0.07945633     1.02290
H20         H  0.00667793  0.35669570  0.43171617     0.32040
O21         O  0.00908849  0.39304886  0.44295703    -0.98810
H22         H  0.39954034  0.45444114  0.52299585     0.32070
O23         O  0.43690836  0.45738631  0.51245593    -1.01350
O24         O  0.19539796  0.50006840  0.02534935    -0.78570
O25         O  0.04426784  0.14524968  0.43200881    -0.78110
O26         O  0.08912367  0.42264111  0.36672743    -0.76550
O27         O  0.06489407  0.42895747  0.10789005    -0.79890
O28         O  0.46393427  0.03736419  0.08621771    -0.77750
O29         O  0.98171299  0.52387125  0.34928256    -0.76390
O30         O  0.20548696  0.09797680  0.41456876    -0.77920
O31         O  0.14078079  0.15461642  0.04107036    -0.79840
O32         O  0.14334154  0.03829727  0.35819167    -0.76580
O33         O  0.07914046  0.09082331  0.09720832    -0.79250
O34         O  0.12115750  0.39698504  0.42822889    -0.74990
O35         O  0.44661503  0.06542320  0.39958165    -0.75020
O36         O  0.44030309  0.06861970  0.52350831    -0.74670
O37         O  0.11285398  0.39908359  0.05872734    -0.78160
O38         O  0.22787394  0.10136865  0.01304743    -0.77590
O39         O  0.14687665  0.17995372  0.44381453    -0.75910
Eu40       Eu  0.08819830  0.42633527  0.99420259     2.39670
Eu41       Eu  0.47236504  0.03641411  0.46094011     2.39570
Eu42       Eu  0.03462465  0.46969872  0.38783030     2.38400
Eu43       Eu  0.51280641  0.48281451  0.06781420     2.39880
Eu44       Eu  0.13945908  0.09191738  0.47802448     2.39790
O45         O  0.04605204  0.06211663  0.51413345    -0.90330
O46         O  0.11369279  0.50136322  0.44148465    -0.89220
C47         C  0.23208670  0.05946934  0.03194092     1.04840
C48         C  0.10403406  0.18400622  0.42593414     1.03560
C49         C  0.11598451  0.40019084  0.38681617     1.02950
C50         C  0.09749680  0.40366357  0.09730600     1.04960
C51         C  0.44254615  0.06426897  0.06472701     1.03880
C52         C  0.95472656  0.05444202  0.36091661     1.02730
C53         C  0.19748301  0.07565358  0.37556303     1.02790
C54         C  0.11644602  0.14524376  0.07981658     1.05400
H55         H  0.07773740  0.08569379  0.39860346     0.32770
O56         O  0.06352095  0.05932302  0.42384940    -1.02490
H57         H  0.13020427  0.02762151  0.05726687     0.34820
O58         O  0.10508736  0.01408876  0.03164825    -1.05050
C59         C  0.40132439  0.10773779  0.32671967    -0.10760
C60         C  0.42833871  0.08033757  0.33310400    -0.12310
C61         C  0.25352896  0.09122425  0.35050142    -0.10760
C62         C  0.30312978  0.10680891  0.33236553    -0.12310
C63         C  0.39841546  0.20428218  0.33239662    -0.10760
C64         C  0.41123632  0.25298797  0.34963412    -0.12310
C65         C  0.14474059  0.24890166  0.12241539    -0.10760
C66         C  0.12982174  0.20009283  0.10442964    -0.12310
C67         C  0.14606132  0.34677280  0.13484049    -0.10760
C68         C  0.12002901  0.37490083  0.12681578    -0.12310
C69         C  0.24278886  0.34278733  0.12132280    -0.10760
C70         C  0.29223119  0.35624690  0.10356536    -0.12310
C71         C  0.39571794  0.11596860  0.10556207    -0.10760
C72         C  0.41864301  0.09182309  0.08879215    -0.12310
C73         C  0.27096023  0.08084344  0.06944684    -0.10760
C74         C  0.30481522  0.10806738  0.09974463    -0.12310
C75         C  0.40186759  0.20586628  0.10119022    -0.10760
C76         C  0.43064789  0.24290747  0.07260157    -0.12310
C77         C  0.33259620  0.16564890  0.19638879    -0.10830
C78         C  0.36485382  0.14509057  0.17136841     0.11320
C79         C  0.39984212  0.12614573  0.19380248    -0.10830
C80         C  0.40122882  0.12559665  0.23824406    -0.10830
C81         C  0.36732344  0.14341405  0.26403236     0.11320
C82         C  0.33381013  0.16483609  0.24222093    -0.10830
H83         H  0.30629222  0.18188150  0.18053450     0.15310
H84         H  0.42814339  0.11197024  0.17754973     0.15310
H85         H  0.43064071  0.11138952  0.25145855     0.15310
H86         H  0.30818691  0.18040754  0.26067091     0.15310
C87         C  0.12512171  0.22592565  0.38975790    -0.10760
C88         C  0.15188217  0.25981000  0.35899691    -0.12310
C89         C  0.16120500  0.34982902  0.34110347    -0.10760
C90         C  0.14061703  0.37510246  0.35996138    -0.12310
C91         C  0.25033938  0.35408322  0.35526827    -0.10760
C92         C  0.28746155  0.38214451  0.38356656    -0.12310
C93         C  0.22889226  0.36702782  0.25928900    -0.10830
C94         C  0.19558771  0.31178555  0.28397744     0.11320
C95         C  0.16037367  0.25506270  0.26164347    -0.10830
C96         C  0.15585158  0.25407419  0.21621779    -0.10830
C97         C  0.18643300  0.30990794  0.19174367     0.11320
C98         C  0.22384664  0.36614353  0.21424110    -0.10830
H99         H  0.25612297  0.41165319  0.27531914     0.15310
H100        H  0.13379057  0.21157700  0.27927786     0.15310
H101        H  0.12644474  0.20942809  0.20077427     0.15310
H102        H  0.24812698  0.40996946  0.19681957     0.15310
C103        C  0.19059313  0.31674837  0.83312015     0.00030
C104        C  0.36507896  0.14487925  0.62154507     0.00030
C105        C  0.17900213  0.31226720  0.64254797     0.00030
C106        C  0.36823946  0.14018306  0.81386564     0.00030
O107        O  0.36949502  0.46166245  0.92450536    -0.77610
O108        O  0.01158465  0.32370927  0.53072823    -0.79170
O109        O  0.40061556  0.29907702  0.91302417    -0.76190
O110        O  0.34272699  0.34858305  0.54077414    -0.74570
O111        O  0.40306465  0.41175166  0.59653300    -0.76360
O112        O  0.96526145  0.36236204  0.85777207    -0.77290
O113        O  0.40880470  0.28170055  0.01435391    -0.78620
O114        O  0.32927738  0.35950937  0.93957188    -0.78910
Eu115      Eu  0.41389478  0.36572581  0.97722997     2.39200
O116        O  0.49387017  0.39918838  0.52755009    -0.86420
O117        O  0.44656601  0.44521164  0.92625551    -0.90020
C118        C  0.32906718  0.40267322  0.91924056     1.04670
C119        C  0.45206256  0.28292908  0.53578217     1.04490
C120        C  0.42520712  0.30806614  0.87434451     1.04430
C121        C  0.34933733  0.37173031  0.57945628     1.02290
H122        H  0.00667824  0.35669530  0.93171610     0.32040
O123        O  0.00908883  0.39304846  0.94295696    -0.98810
H124        H  0.39954076  0.45444073  0.02299589     0.32070
O125        O  0.43690878  0.45738593  0.01245594    -1.01350
O126        O  0.19539752  0.50006891  0.52534953    -0.78570
O127        O  0.04426829  0.14524932  0.93200876    -0.78110
O128        O  0.08912386  0.42264062  0.86672729    -0.76550
O129        O  0.06489367  0.42895800  0.60789015    -0.79890
O130        O  0.46393383  0.03736474  0.58621759    -0.77750
O131        O  0.98171336  0.52387093  0.84928253    -0.76390
O132        O  0.20548731  0.09797641  0.91456877    -0.77920
O133        O  0.14078034  0.15461688  0.54107029    -0.79840
O134        O  0.14334190  0.03829690  0.85819168    -0.76580
O135        O  0.07913995  0.09082383  0.59720826    -0.79250
O136        O  0.12115776  0.39698459  0.92822873    -0.74990
O137        O  0.44661535  0.06542283  0.89958162    -0.75020
O138        O  0.44030354  0.06861928  0.02350848    -0.74670
O139        O  0.11285360  0.39908410  0.55872748    -0.78160
O140        O  0.22787353  0.10136909  0.51304753    -0.77590
O141        O  0.14687708  0.17995332  0.94381449    -0.75910
Eu142      Eu  0.08819792  0.42633573  0.49420270     2.39670
Eu143      Eu  0.47236542  0.03641378  0.96094013     2.39570
Eu144      Eu  0.03462498  0.46969835  0.88783026     2.38400
Eu145      Eu  0.51280596  0.48281496  0.56781422     2.39880
Eu146      Eu  0.13945945  0.09191696  0.97802448     2.39790
O147        O  0.04605242  0.06211623  0.01413346    -0.90330
O148        O  0.11369316  0.50136281  0.94148458    -0.89220
C149        C  0.23208623  0.05946977  0.53194108     1.04840
C150        C  0.10403451  0.18400583  0.92593407     1.03560
C151        C  0.11598471  0.40019035  0.88681602     1.02950
C152        C  0.09749642  0.40366410  0.59730613     1.04960
C153        C  0.44254572  0.06426949  0.56472684     1.03880
C154        C  0.95472690  0.05444167  0.86091658     1.02730
C155        C  0.19748336  0.07565321  0.87556304     1.02790
C156        C  0.11644552  0.14524427  0.57981650     1.05400
H157        H  0.07773775  0.08569336  0.89860347     0.32770
O158        O  0.06352129  0.05932261  0.92384942    -1.02490
H159        H  0.13020379  0.02762200  0.55726693     0.34820
O160        O  0.10508692  0.01408922  0.53164829    -1.05050
C161        C  0.40132480  0.10773750  0.82671956    -0.10760
C162        C  0.42833912  0.08033727  0.83310393    -0.12310
C163        C  0.25352931  0.09122386  0.85050145    -0.10760
C164        C  0.30313014  0.10680855  0.83236560    -0.12310
C165        C  0.39841580  0.20428183  0.83239666    -0.10760
C166        C  0.41123665  0.25298762  0.84963414    -0.12310
C167        C  0.14474010  0.24890218  0.62241527    -0.10760
C168        C  0.12982122  0.20009336  0.60442952    -0.12310
C169        C  0.14606094  0.34677334  0.63484063    -0.10760
C170        C  0.12002863  0.37490138  0.62681594    -0.12310
C171        C  0.24278839  0.34278780  0.62132271    -0.10760
C172        C  0.29223072  0.35624737  0.60356527    -0.12310
C173        C  0.39571759  0.11596921  0.60556189    -0.10760
C174        C  0.41864263  0.09182371  0.58879191    -0.12310
C175        C  0.27095973  0.08084388  0.56944702    -0.10760
C176        C  0.30481475  0.10806780  0.59974479    -0.12310
C177        C  0.40186703  0.20586680  0.60119041    -0.10760
C178        C  0.43064727  0.24290801  0.57260175    -0.12310
C179        C  0.33259624  0.16564916  0.69638907    -0.10830
C180        C  0.36485359  0.14509072  0.67136848     0.11320
C181        C  0.39984171  0.12614547  0.69380234    -0.10830
C182        C  0.40122854  0.12559617  0.73824391    -0.10830
C183        C  0.36732354  0.14341381  0.76403240     0.11320
C184        C  0.33381034  0.16483615  0.74222118    -0.10830
H185        H  0.30629236  0.18188200  0.68053495     0.15310
H186        H  0.42814270  0.11196977  0.67754943     0.15310
H187        H  0.43064020  0.11138865  0.75145825     0.15310
H188        H  0.30818735  0.18040773  0.76067133     0.15310
C189        C  0.12512219  0.22592520  0.88975777    -0.10760
C190        C  0.15188263  0.25980955  0.85899678    -0.12310
C191        C  0.16120528  0.34982852  0.84110344    -0.10760
C192        C  0.14061720  0.37510192  0.85996125    -0.12310
C193        C  0.25033978  0.35408289  0.85526820    -0.10760
C194        C  0.28746195  0.38214415  0.88356650    -0.12310
C195        C  0.22889254  0.36702773  0.75928898    -0.10830
C196        C  0.19558805  0.31178535  0.78397732     0.11320
C197        C  0.16037382  0.25506262  0.76164326    -0.10830
C198        C  0.15585143  0.25407432  0.71621761    -0.10830
C199        C  0.18643274  0.30990819  0.69174361     0.11320
C200        C  0.22384659  0.36614365  0.71424111    -0.10830
H201        H  0.25612338  0.41165303  0.77531920     0.15310
H202        H  0.13379075  0.21157685  0.77927757     0.15310
H203        H  0.12644446  0.20942829  0.70077403     0.15310
H204        H  0.24812688  0.40996966  0.69681968     0.15310
C205        C  0.19058259  0.81674683  0.33312012     0.00030
C206        C  0.36509309  0.64487414  0.12154286     0.00030
C207        C  0.17898554  0.81226242  0.14254627     0.00030
C208        C  0.36824736  0.64018492  0.31386550     0.00030
O209        O  0.36948394  0.96166399  0.42450091    -0.77610
O210        O  0.01156728  0.82371692  0.03073341    -0.79170
O211        O  0.40060954  0.79907777  0.41302230    -0.76190
O212        O  0.34271289  0.84858326  0.04077229    -0.74570
O213        O  0.40304864  0.91175237  0.09653168    -0.76360
O214        O  0.96525703  0.86236343  0.35777101    -0.77290
O215        O  0.40878718  0.78169979  0.51435293    -0.78620
O216        O  0.32926674  0.85951093  0.43956731    -0.78910
Eu217      Eu  0.41388171  0.86572601  0.47722800     2.39200
O218        O  0.49385635  0.89919042  0.02755022    -0.86420
O219        O  0.44655584  0.94521296  0.42625402    -0.90020
C220        C  0.32905745  0.90267495  0.41923547     1.04670
C221        C  0.45204575  0.78293236  0.03578470     1.04490
C222        C  0.42520337  0.80806719  0.37434320     1.04430
C223        C  0.34932194  0.87173079  0.07945444     1.02290
H224        H  0.00666985  0.85669861  0.43171905     0.32040
O225        O  0.00907900  0.89305155  0.44295874    -0.98810
H226        H  0.39952468  0.95443776  0.52299046     0.32070
O227        O  0.43689491  0.95738611  0.51245215    -1.01350
O228        O  0.19538167  0.00008591  0.02535973    -0.78570
O229        O  0.04428290  0.64524793  0.43201262    -0.78110
O230        O  0.08911777  0.92264020  0.36673480    -0.76550
O231        O  0.06487469  0.92895394  0.10788895    -0.79890
O232        O  0.46397289  0.53738204  0.08622170    -0.77750
O233        O  0.98170356  0.02386778  0.34927920    -0.76390
O234        O  0.20549881  0.59797463  0.41456846    -0.77920
O235        O  0.14079229  0.65461501  0.04107057    -0.79840
O236        O  0.14335016  0.53829656  0.35819188    -0.76580
O237        O  0.07915528  0.59082173  0.09720932    -0.79250
O238        O  0.12115071  0.89698726  0.42823806    -0.74990
O239        O  0.44662819  0.56542756  0.39958698    -0.75020
O240        O  0.44033674  0.56863266  0.52351228    -0.74670
O241        O  0.11284428  0.89908830  0.05872823    -0.78160
O242        O  0.22788681  0.60135305  0.01304937    -0.77590
O243        O  0.14689237  0.67995091  0.44381514    -0.75910
Eu244      Eu  0.08818708  0.92634195  0.99420646     2.39670
Eu245      Eu  0.47237939  0.53641300  0.46094260     2.39570
Eu246      Eu  0.03461640  0.96969931  0.38783031     2.38400
Eu247      Eu  0.51278941  0.98281620  0.06781325     2.39880
Eu248      Eu  0.13947535  0.59191427  0.47802624     2.39790
O249        O  0.04606810  0.56211188  0.51413369    -0.90330
O250        O  0.11368365  0.00136680  0.44148559    -0.89220
C251        C  0.23210293  0.55945042  0.03193508     1.04840
C252        C  0.10404873  0.68400415  0.42593676     1.03560
C253        C  0.11597766  0.90019013  0.38682517     1.02950
C254        C  0.09748062  0.90366248  0.09730608     1.04960
C255        C  0.44258976  0.56429135  0.06473081     1.03880
C256        C  0.95473771  0.55444672  0.36092135     1.02730
C257        C  0.19749243  0.57565204  0.37556253     1.02790
C258        C  0.11645644  0.64524234  0.07981662     1.05400
H259        H  0.07775134  0.58569209  0.39860603     0.32770
O260        O  0.06353491  0.55932140  0.42385193    -1.02490
H261        H  0.13022397  0.52761200  0.05726482     0.34820
O262        O  0.10510372  0.51408239  0.03164770    -1.05050
C263        C  0.40133593  0.60774380  0.32672305    -0.10760
C264        C  0.42835034  0.58034405  0.33310952    -0.12310
C265        C  0.25353701  0.59122256  0.35050000    -0.10760
C266        C  0.30313824  0.60680849  0.33236477    -0.12310
C267        C  0.39841969  0.70428478  0.33239488    -0.10760
C268        C  0.41123645  0.75298924  0.34963290    -0.12310
C269        C  0.14473083  0.74889679  0.12241344    -0.10760
C270        C  0.12982271  0.70009030  0.10442798    -0.12310
C271        C  0.14603980  0.84676459  0.13483819    -0.10760
C272        C  0.12000805  0.87489405  0.12681518    -0.12310
C273        C  0.24277277  0.84278741  0.12132172    -0.10760
C274        C  0.29221488  0.85624757  0.10356335    -0.12310
C275        C  0.39576426  0.61599671  0.10556027    -0.10760
C276        C  0.41870090  0.59185972  0.08879464    -0.12310
C277        C  0.27098137  0.58081794  0.06943890    -0.10760
C278        C  0.30483413  0.60804261  0.09973770    -0.12310
C279        C  0.40185825  0.70586577  0.10119215    -0.10760
C280        C  0.43063047  0.74291103  0.07260414    -0.12310
C281        C  0.33260434  0.66564179  0.19638569    -0.10830
C282        C  0.36485792  0.64507735  0.17136687     0.11320
C283        C  0.39983395  0.62611980  0.19380344    -0.10830
C284        C  0.40122369  0.62557744  0.23824503    -0.10830
C285        C  0.36732907  0.64340902  0.26403173     0.11320
C286        C  0.33381904  0.66483307  0.24221807    -0.10830
H287        H  0.30630587  0.68187954  0.18052991     0.15310
H288        H  0.42812385  0.61192873  0.17755342     0.15310
H289        H  0.43062787  0.61136167  0.25146055     0.15310
H290        H  0.30820042  0.68041107  0.26066658     0.15310
C291        C  0.12513241  0.72592378  0.38976087    -0.10760
C292        C  0.15188285  0.75980763  0.35899806    -0.12310
C293        C  0.16119142  0.84982246  0.34111054    -0.10760
C294        C  0.14060700  0.87509691  0.35997184    -0.12310
C295        C  0.25033279  0.85408514  0.35526248    -0.10760
C296        C  0.28745518  0.88214687  0.38356025    -0.12310
C297        C  0.22886798  0.86702711  0.25928790    -0.10830
C298        C  0.19557003  0.81178457  0.28397648     0.11320
C299        C  0.16035937  0.75506111  0.26164272    -0.10830
C300        C  0.15583688  0.75407168  0.21621694    -0.10830
C301        C  0.18641488  0.80990508  0.19174240     0.11320
C302        C  0.22382280  0.86614175  0.21423990    -0.10830
H303        H  0.25609535  0.91165295  0.27531788     0.15310
H304        H  0.13378055  0.71157524  0.27927733     0.15310
H305        H  0.12643337  0.70942491  0.20077351     0.15310
H306        H  0.24809957  0.90996755  0.19681823     0.15310
C307        C  0.19058300  0.81674648  0.83312003     0.00030
C308        C  0.36509274  0.64487460  0.62154294     0.00030
C309        C  0.17898513  0.81226289  0.64254625     0.00030
C310        C  0.36824769  0.64018459  0.81386551     0.00030
O311        O  0.36948432  0.96166366  0.92450090    -0.77610
O312        O  0.01156670  0.82371745  0.53073362    -0.79170
O313        O  0.40060986  0.79907740  0.91302230    -0.76190
O314        O  0.34271248  0.84858369  0.54077228    -0.74570
O315        O  0.40304817  0.91175285  0.59653167    -0.76360
O316        O  0.96525730  0.86236307  0.85777100    -0.77290
O317        O  0.40878767  0.78169946  0.01435291    -0.78620
O318        O  0.32926717  0.85951059  0.93956723    -0.78910
Eu319      Eu  0.41388209  0.86572564  0.97722799     2.39200
O320        O  0.49385594  0.89919089  0.52755027    -0.86420
O321        O  0.44655624  0.94521263  0.92625406    -0.90020
C322        C  0.32905786  0.90267462  0.91923542     1.04670
C323        C  0.45204524  0.78293283  0.53578484     1.04490
C324        C  0.42520367  0.80806683  0.87434319     1.04430
C325        C  0.34932150  0.87173125  0.57945441     1.02290
H326        H  0.00667019  0.85669823  0.93171899     0.32040
O327        O  0.00907936  0.89305118  0.94295869    -0.98810
H328        H  0.39952510  0.95443735  0.02299049     0.32070
O329        O  0.43689533  0.95738573  0.01245215    -1.01350
O330        O  0.19538119  0.00008635  0.52535991    -0.78570
O331        O  0.04428340  0.64524760  0.93201257    -0.78110
O332        O  0.08911797  0.92263972  0.86673467    -0.76550
O333        O  0.06487428  0.92895446  0.60788905    -0.79890
O334        O  0.46397244  0.53738257  0.58622157    -0.77750
O335        O  0.98170393  0.02386747  0.84927918    -0.76390
O336        O  0.20549917  0.59797422  0.91456846    -0.77920
O337        O  0.14079182  0.65461549  0.54107052    -0.79840
O338        O  0.14335052  0.53829618  0.85819187    -0.76580
O339        O  0.07915477  0.59082226  0.59720927    -0.79250
O340        O  0.12115101  0.89698684  0.92823791    -0.74990
O341        O  0.44662848  0.56542715  0.89958696    -0.75020
O342        O  0.44033718  0.56863224  0.02351245    -0.74670
O343        O  0.11284383  0.89908873  0.55872836    -0.78160
O344        O  0.22788640  0.60135355  0.51304947    -0.77590
O345        O  0.14689286  0.67995051  0.94381510    -0.75910
Eu346      Eu  0.08818666  0.92634236  0.49420657     2.39670
Eu347      Eu  0.47237975  0.53641266  0.96094263     2.39570
Eu348      Eu  0.03461673  0.96969895  0.88783028     2.38400
Eu349      Eu  0.51278896  0.98281667  0.56781328     2.39880
Eu350      Eu  0.13947573  0.59191383  0.97802624     2.39790
O351        O  0.04606851  0.56211149  0.01413370    -0.90330
O352        O  0.11368403  0.00136642  0.94148552    -0.89220
C353        C  0.23210249  0.55945094  0.53193524     1.04840
C354        C  0.10404925  0.68400377  0.92593669     1.03560
C355        C  0.11597788  0.90018965  0.88682503     1.02950
C356        C  0.09748020  0.90366298  0.59730621     1.04960
C357        C  0.44258933  0.56429186  0.56473063     1.03880
C358        C  0.95473810  0.55444642  0.86092131     1.02730
C359        C  0.19749279  0.57565164  0.87556254     1.02790
C360        C  0.11645593  0.64524286  0.57981655     1.05400
H361        H  0.07775171  0.58569166  0.89860604     0.32770
O362        O  0.06353527  0.55932100  0.92385194    -1.02490
H363        H  0.13022351  0.52761252  0.55726489     0.34820
O364        O  0.10510329  0.51408288  0.53164776    -1.05050
C365        C  0.40133635  0.60774350  0.82672293    -0.10760
C366        C  0.42835075  0.58034375  0.83310944    -0.12310
C367        C  0.25353736  0.59122216  0.85050003    -0.10760
C368        C  0.30313861  0.60680811  0.83236483    -0.12310
C369        C  0.39842002  0.70428443  0.83239491    -0.10760
C370        C  0.41123677  0.75298888  0.84963291    -0.12310
C371        C  0.14473034  0.74889732  0.62241333    -0.10760
C372        C  0.12982218  0.70009083  0.60442786    -0.12310
C373        C  0.14603941  0.84676513  0.63483834    -0.10760
C374        C  0.12000766  0.87489459  0.62681533    -0.12310
C375        C  0.24277231  0.84278789  0.62132164    -0.10760
C376        C  0.29221442  0.85624805  0.60356328    -0.12310
C377        C  0.39576392  0.61599731  0.60556008    -0.10760
C378        C  0.41870051  0.59186031  0.58879440    -0.12310
C379        C  0.27098091  0.58081847  0.56943907    -0.10760
C380        C  0.30483370  0.60804310  0.59973786    -0.12310
C381        C  0.40185778  0.70586632  0.60119235    -0.10760
C382        C  0.43062993  0.74291160  0.57260434    -0.12310
C383        C  0.33260440  0.66564206  0.69638596    -0.10830
C384        C  0.36485772  0.64507752  0.67136693     0.11320
C385        C  0.39983357  0.62611956  0.69380330    -0.10830
C386        C  0.40122344  0.62557697  0.73824488    -0.10830
C387        C  0.36732918  0.64340878  0.76403177     0.11320
C388        C  0.33381926  0.66483313  0.74221833    -0.10830
H389        H  0.30630603  0.68188005  0.68053035     0.15310
H390        H  0.42812320  0.61192829  0.67755312     0.15310
H391        H  0.43062739  0.61136081  0.75146026     0.15310
H392        H  0.30820087  0.68041126  0.76066700     0.15310
C393        C  0.12513295  0.72592335  0.88976076    -0.10760
C394        C  0.15188335  0.75980721  0.85899793    -0.12310
C395        C  0.16119169  0.84982196  0.84111052    -0.10760
C396        C  0.14060717  0.87509638  0.85997172    -0.12310
C397        C  0.25033321  0.85408486  0.85526240    -0.10760
C398        C  0.28745559  0.88214657  0.88356019    -0.12310
C399        C  0.22886825  0.86702704  0.75928788    -0.10830
C400        C  0.19557038  0.81178440  0.78397637     0.11320
C401        C  0.16035953  0.75506104  0.76164252    -0.10830
C402        C  0.15583674  0.75407183  0.71621676    -0.10830
C403        C  0.18641463  0.80990534  0.69174234     0.11320
C404        C  0.22382275  0.86614190  0.71423992    -0.10830
H405        H  0.25609576  0.91165281  0.77531794     0.15310
H406        H  0.13378075  0.71157511  0.77927705     0.15310
H407        H  0.12643310  0.70942513  0.70077327     0.15310
H408        H  0.24809945  0.90996778  0.69681834     0.15310
C409        C  0.69059270  0.31674870  0.33312023     0.00030
C410        C  0.86507937  0.14487884  0.12154501     0.00030
C411        C  0.67900254  0.31226674  0.14254800     0.00030
C412        C  0.86823913  0.14018339  0.31386564     0.00030
O413        O  0.86949461  0.46166273  0.42450538    -0.77610
O414        O  0.51158514  0.32370870  0.03072801    -0.79170
O415        O  0.90061525  0.29907738  0.41302419    -0.76190
O416        O  0.84272740  0.34858261  0.04077418    -0.74570
O417        O  0.90306512  0.41175118  0.09653303    -0.76360
O418        O  0.46526118  0.36236241  0.35777207    -0.77290
O419        O  0.90880424  0.28170087  0.51435394    -0.78620
O420        O  0.82927694  0.35950967  0.43957198    -0.78910
Eu421      Eu  0.91389440  0.36572617  0.47723000     2.39200
O422        O  0.99387061  0.39918794  0.02755005    -0.86420
O423        O  0.94656561  0.44521194  0.42625549    -0.90020
C424        C  0.82906675  0.40267350  0.41924063     1.04670
C425        C  0.95206316  0.28292864  0.03578204     1.04490
C426        C  0.92520683  0.30806650  0.37434452     1.04430
C427        C  0.84933778  0.37172984  0.07945633     1.02290
H428        H  0.50667789  0.35669568  0.43171615     0.32040
O429        O  0.50908846  0.39304883  0.44295700    -0.98810
H430        H  0.89954032  0.45444111  0.52299587     0.32070
O431        O  0.93690834  0.45738628  0.51245595    -1.01350
O432        O  0.69539796  0.50006839  0.02534935    -0.78570
O433        O  0.54426775  0.14524963  0.43200881    -0.78110
O434        O  0.58912368  0.42264111  0.36672741    -0.76550
O435        O  0.56489408  0.42895747  0.10789005    -0.79890
O436        O  0.96393428  0.03736420  0.08621770    -0.77750
O437        O  0.48171299  0.52387125  0.34928255    -0.76390
O438        O  0.70548695  0.09797683  0.41456877    -0.77920
O439        O  0.64078077  0.15461642  0.04107036    -0.79840
O440        O  0.64334154  0.03829727  0.35819169    -0.76580
O441        O  0.57914045  0.09082331  0.09720832    -0.79250
O442        O  0.62115747  0.39698501  0.42822887    -0.74990
O443        O  0.94661516  0.06542332  0.39958164    -0.75020
O444        O  0.94030313  0.06861974  0.52350831    -0.74670
O445        O  0.61285399  0.39908359  0.05872734    -0.78160
O446        O  0.72787393  0.10136869  0.01304744    -0.77590
O447        O  0.64687656  0.17995372  0.44381453    -0.75910
Eu448      Eu  0.58819829  0.42633527  0.99420259     2.39670
Eu449      Eu  0.97236509  0.03641415  0.46094010     2.39570
Eu450      Eu  0.53462465  0.46969872  0.38783029     2.38400
Eu451      Eu  0.01280640  0.48281450  0.06781420     2.39880
Eu452      Eu  0.63945905  0.09191740  0.47802449     2.39790
O453        O  0.54605200  0.06211661  0.51413345    -0.90330
O454        O  0.61369277  0.50136319  0.44148464    -0.89220
C455        C  0.73208671  0.05946938  0.03194092     1.04840
C456        C  0.60403396  0.18400619  0.42593414     1.03560
C457        C  0.61598451  0.40019083  0.38681615     1.02950
C458        C  0.59749681  0.40366357  0.09730600     1.04960
C459        C  0.94254617  0.06426900  0.06472700     1.03880
C460        C  0.45472650  0.05444196  0.36091662     1.02730
C461        C  0.69748301  0.07565360  0.37556304     1.02790
C462        C  0.61644600  0.14524376  0.07981659     1.05400
H463        H  0.57773736  0.08569378  0.39860346     0.32770
O464        O  0.56352092  0.05932301  0.42384941    -1.02490
H465        H  0.63020427  0.02762153  0.05726687     0.34820
O466        O  0.60508736  0.01408878  0.03164825    -1.05050
C467        C  0.90132439  0.10773780  0.32671968    -0.10760
C468        C  0.92833872  0.08033758  0.33310400    -0.12310
C469        C  0.75352896  0.09122427  0.35050143    -0.10760
C470        C  0.80312977  0.10680893  0.33236554    -0.12310
C471        C  0.89841547  0.20428219  0.33239663    -0.10760
C472        C  0.91123634  0.25298797  0.34963413    -0.12310
C473        C  0.64474058  0.24890166  0.12241539    -0.10760
C474        C  0.62982172  0.20009283  0.10442965    -0.12310
C475        C  0.64606133  0.34677281  0.13484049    -0.10760
C476        C  0.62002902  0.37490084  0.12681578    -0.12310
C477        C  0.74278885  0.34278732  0.12132280    -0.10760
C478        C  0.79223118  0.35624689  0.10356536    -0.12310
C479        C  0.89571794  0.11596861  0.10556208    -0.10760
C480        C  0.91864303  0.09182311  0.08879215    -0.12310
C481        C  0.77096025  0.08084349  0.06944684    -0.10760
C482        C  0.80481523  0.10806741  0.09974463    -0.12310
C483        C  0.90186761  0.20586630  0.10119023    -0.10760
C484        C  0.93064791  0.24290749  0.07260158    -0.12310
C485        C  0.83259622  0.16564894  0.19638880    -0.10830
C486        C  0.86485382  0.14509057  0.17136842     0.11320
C487        C  0.89984208  0.12614570  0.19380249    -0.10830
C488        C  0.90122878  0.12559661  0.23824407    -0.10830
C489        C  0.86732343  0.14341405  0.26403237     0.11320
C490        C  0.83381015  0.16483611  0.24222093    -0.10830
H491        H  0.80629226  0.18188155  0.18053451     0.15310
H492        H  0.92814333  0.11197017  0.17754973     0.15310
H493        H  0.93064064  0.11138945  0.25145855     0.15310
H494        H  0.80818695  0.18040759  0.26067092     0.15310
C495        C  0.62512160  0.22592561  0.38975789    -0.10760
C496        C  0.65188209  0.25980995  0.35899691    -0.12310
C497        C  0.66120502  0.34982902  0.34110346    -0.10760
C498        C  0.64061705  0.37510247  0.35996136    -0.12310
C499        C  0.75033935  0.35408313  0.35526829    -0.10760
C500        C  0.78746151  0.38214439  0.38356658    -0.12310
C501        C  0.72889228  0.36702778  0.25928901    -0.10830
C502        C  0.69558769  0.31178550  0.28397744     0.11320
C503        C  0.66037362  0.25506266  0.26164346    -0.10830
C504        C  0.65585153  0.25407417  0.21621779    -0.10830
C505        C  0.68643299  0.30990793  0.19174367     0.11320
C506        C  0.72384665  0.36614350  0.21424111    -0.10830
H507        H  0.75612301  0.41165315  0.27531916     0.15310
H508        H  0.63379049  0.21157697  0.27927786     0.15310
H509        H  0.62644467  0.20942807  0.20077427     0.15310
H510        H  0.74812703  0.40996943  0.19681958     0.15310
C511        C  0.69059310  0.31674835  0.83312016     0.00030
C512        C  0.86507901  0.14487929  0.62154508     0.00030
C513        C  0.67900213  0.31226720  0.64254798     0.00030
C514        C  0.86823945  0.14018305  0.81386564     0.00030
O515        O  0.86949501  0.46166242  0.92450537    -0.77610
O516        O  0.51158455  0.32370922  0.53072821    -0.79170
O517        O  0.90061556  0.29907701  0.91302418    -0.76190
O518        O  0.84272700  0.34858302  0.54077417    -0.74570
O519        O  0.90306465  0.41175166  0.59653303    -0.76360
O520        O  0.46526145  0.36236205  0.85777207    -0.77290
O521        O  0.90880471  0.28170055  0.01435392    -0.78620
O522        O  0.82927736  0.35950935  0.93957190    -0.78910
Eu523      Eu  0.91389477  0.36572581  0.97722997     2.39200
O524        O  0.99387021  0.39918840  0.52755011    -0.86420
O525        O  0.94656600  0.44521162  0.92625551    -0.90020
C526        C  0.82906716  0.40267319  0.91924057     1.04670
C527        C  0.95206267  0.28292911  0.53578220     1.04490
C528        C  0.92520712  0.30806613  0.87434451     1.04430
C529        C  0.84933734  0.37173029  0.57945631     1.02290
H530        H  0.50667824  0.35669530  0.93171610     0.32040
O531        O  0.50908883  0.39304846  0.94295696    -0.98810
H532        H  0.89954075  0.45444072  0.02299590     0.32070
O533        O  0.93690877  0.45738592  0.01245594    -1.01350
O534        O  0.69539747  0.50006881  0.52534952    -0.78570
O535        O  0.54426823  0.14524929  0.93200876    -0.78110
O536        O  0.58912388  0.42264064  0.86672729    -0.76550
O537        O  0.56489366  0.42895799  0.60789014    -0.79890
O538        O  0.96393383  0.03736473  0.58621759    -0.77750
O539        O  0.48171336  0.52387093  0.84928253    -0.76390
O540        O  0.70548730  0.09797642  0.91456877    -0.77920
O541        O  0.64078031  0.15461689  0.54107030    -0.79840
O542        O  0.64334189  0.03829690  0.85819169    -0.76580
O543        O  0.57913994  0.09082383  0.59720827    -0.79250
O544        O  0.62115777  0.39698459  0.92822873    -0.74990
O545        O  0.94661545  0.06542292  0.89958162    -0.75020
O546        O  0.94030357  0.06861932  0.02350848    -0.74670
O547        O  0.61285351  0.39908399  0.55872746    -0.78160
O548        O  0.72787353  0.10136917  0.51304753    -0.77590
O549        O  0.64687703  0.17995332  0.94381449    -0.75910
Eu550      Eu  0.58819787  0.42633567  0.49420269     2.39670
Eu551      Eu  0.97236545  0.03641382  0.96094013     2.39570
Eu552      Eu  0.53462499  0.46969835  0.88783026     2.38400
Eu553      Eu  0.01280596  0.48281497  0.56781424     2.39880
Eu554      Eu  0.63945943  0.09191697  0.97802448     2.39790
O555        O  0.54605240  0.06211621  0.01413347    -0.90330
O556        O  0.61369316  0.50136281  0.94148458    -0.89220
C557        C  0.73208626  0.05946987  0.53194107     1.04840
C558        C  0.60403446  0.18400581  0.92593408     1.03560
C559        C  0.61598472  0.40019036  0.88681602     1.02950
C560        C  0.59749637  0.40366405  0.59730612     1.04960
C561        C  0.94254573  0.06426950  0.56472683     1.03880
C562        C  0.45472686  0.05444163  0.86091658     1.02730
C563        C  0.69748336  0.07565321  0.87556305     1.02790
C564        C  0.61644550  0.14524427  0.57981651     1.05400
H565        H  0.57773772  0.08569336  0.89860347     0.32770
O566        O  0.56352127  0.05932261  0.92384942    -1.02490
H567        H  0.63020381  0.02762204  0.55726693     0.34820
O568        O  0.60508693  0.01408925  0.53164830    -1.05050
C569        C  0.90132480  0.10773750  0.82671956    -0.10760
C570        C  0.92833913  0.08033729  0.83310393    -0.12310
C571        C  0.75352931  0.09122387  0.85050146    -0.10760
C572        C  0.80313014  0.10680855  0.83236561    -0.12310
C573        C  0.89841580  0.20428183  0.83239666    -0.10760
C574        C  0.91123665  0.25298761  0.84963414    -0.12310
C575        C  0.64474009  0.24890218  0.62241528    -0.10760
C576        C  0.62982121  0.20009336  0.60442953    -0.12310
C577        C  0.64606094  0.34677334  0.63484064    -0.10760
C578        C  0.62002862  0.37490137  0.62681593    -0.12310
C579        C  0.74278839  0.34278779  0.62132272    -0.10760
C580        C  0.79223072  0.35624736  0.60356530    -0.12310
C581        C  0.89571760  0.11596920  0.60556189    -0.10760
C582        C  0.91864263  0.09182370  0.58879191    -0.12310
C583        C  0.77095977  0.08084399  0.56944701    -0.10760
C584        C  0.80481480  0.10806789  0.59974478    -0.12310
C585        C  0.90186713  0.20586684  0.60119044    -0.10760
C586        C  0.93064739  0.24290806  0.57260179    -0.12310
C587        C  0.83259628  0.16564920  0.69638907    -0.10830
C588        C  0.86485360  0.14509072  0.67136849     0.11320
C589        C  0.89984167  0.12614542  0.69380235    -0.10830
C590        C  0.90122848  0.12559610  0.73824392    -0.10830
C591        C  0.86732352  0.14341380  0.76403241     0.11320
C592        C  0.83381037  0.16483618  0.74222118    -0.10830
H593        H  0.80629244  0.18188209  0.68053495     0.15310
H594        H  0.92814262  0.11196967  0.67754944     0.15310
H595        H  0.93064010  0.11138853  0.75145826     0.15310
H596        H  0.80818741  0.18040779  0.76067133     0.15310
C597        C  0.62512213  0.22592518  0.88975778    -0.10760
C598        C  0.65188258  0.25980953  0.85899679    -0.12310
C599        C  0.66120528  0.34982852  0.84110345    -0.10760
C600        C  0.64061722  0.37510194  0.85996125    -0.12310
C601        C  0.75033975  0.35408286  0.85526821    -0.10760
C602        C  0.78746192  0.38214411  0.88356651    -0.12310
C603        C  0.72889253  0.36702772  0.75928900    -0.10830
C604        C  0.69558803  0.31178533  0.78397734     0.11320
C605        C  0.66037377  0.25506260  0.76164327    -0.10830
C606        C  0.65585139  0.25407431  0.71621762    -0.10830
C607        C  0.68643273  0.30990818  0.69174362     0.11320
C608        C  0.72384659  0.36614364  0.71424113    -0.10830
H609        H  0.75612340  0.41165301  0.77531922     0.15310
H610        H  0.63379068  0.21157683  0.77927758     0.15310
H611        H  0.62644440  0.20942829  0.70077404     0.15310
H612        H  0.74812690  0.40996965  0.69681970     0.15310
C613        C  0.69058263  0.81674688  0.33312011     0.00030
C614        C  0.86509309  0.64487415  0.12154286     0.00030
C615        C  0.67898554  0.81226243  0.14254627     0.00030
C616        C  0.86824737  0.64018493  0.31386550     0.00030
O617        O  0.86948399  0.96166408  0.42450089    -0.77610
O618        O  0.51156733  0.82371694  0.03073342    -0.79170
O619        O  0.90060951  0.79907779  0.41302228    -0.76190
O620        O  0.84271288  0.84858329  0.04077227    -0.74570
O621        O  0.90304864  0.91175238  0.09653167    -0.76360
O622        O  0.46525703  0.86236343  0.35777103    -0.77290
O623        O  0.90878709  0.78169978  0.51435290    -0.78620
O624        O  0.82926675  0.85951101  0.43956729    -0.78910
Eu625      Eu  0.91388169  0.86572603  0.47722797     2.39200
O626        O  0.99385633  0.89919043  0.02755021    -0.86420
O627        O  0.94655586  0.94521300  0.42625401    -0.90020
C628        C  0.82905748  0.90267504  0.41923545     1.04670
C629        C  0.95204570  0.78293235  0.03578468     1.04490
C630        C  0.92520335  0.80806720  0.37434318     1.04430
C631        C  0.84932194  0.87173081  0.07945442     1.02290
H632        H  0.50666988  0.85669863  0.43171907     0.32040
O633        O  0.50907903  0.89305157  0.44295876    -0.98810
H634        H  0.89952470  0.95443779  0.52299044     0.32070
O635        O  0.93689492  0.95738614  0.51245213    -1.01350
O636        O  0.69538169  0.00008595  0.02535973    -0.78570
O637        O  0.54428299  0.64524798  0.43201262    -0.78110
O638        O  0.58911777  0.92264021  0.36673481    -0.76550
O639        O  0.56487469  0.92895394  0.10788896    -0.79890
O640        O  0.96397290  0.53738205  0.08622169    -0.77750
O641        O  0.48170356  0.02386778  0.34927921    -0.76390
O642        O  0.70549882  0.59797460  0.41456845    -0.77920
O643        O  0.64079230  0.65461502  0.04107057    -0.79840
O644        O  0.64335016  0.53829655  0.35819186    -0.76580
O645        O  0.57915529  0.59082173  0.09720932    -0.79250
O646        O  0.62115075  0.89698730  0.42823807    -0.74990
O647        O  0.94662807  0.56542744  0.39958698    -0.75020
O648        O  0.94033670  0.56863263  0.52351228    -0.74670
O649        O  0.61284434  0.89908836  0.05872824    -0.78160
O650        O  0.72788682  0.60135304  0.01304937    -0.77590
O651        O  0.64689245  0.67995090  0.44381513    -0.75910
Eu652      Eu  0.58818711  0.92634197  0.99420647     2.39670
Eu653      Eu  0.97237933  0.53641295  0.46094261     2.39570
Eu654      Eu  0.53461640  0.96969931  0.38783032     2.38400
Eu655      Eu  0.01278941  0.98281621  0.06781324     2.39880
Eu656      Eu  0.63947538  0.59191424  0.47802624     2.39790
O657        O  0.54606814  0.56211190  0.51413368    -0.90330
O658        O  0.61368367  0.00136683  0.44148559    -0.89220
C659        C  0.73210293  0.55945041  0.03193508     1.04840
C660        C  0.60404882  0.68400418  0.42593676     1.03560
C661        C  0.61597768  0.90019014  0.38682518     1.02950
C662        C  0.59748064  0.90366251  0.09730609     1.04960
C663        C  0.94258977  0.56429136  0.06473080     1.03880
C664        C  0.45473776  0.55444677  0.36092134     1.02730
C665        C  0.69749244  0.57565202  0.37556252     1.02790
C666        C  0.61645645  0.64524235  0.07981662     1.05400
H667        H  0.57775138  0.58569210  0.39860603     0.32770
O668        O  0.56353494  0.55932140  0.42385192    -1.02490
H669        H  0.63022398  0.52761200  0.05726482     0.34820
O670        O  0.60510372  0.51408239  0.03164770    -1.05050
C671        C  0.90133594  0.60774380  0.32672304    -0.10760
C672        C  0.92835034  0.58034404  0.33310951    -0.12310
C673        C  0.75353701  0.59122255  0.35049999    -0.10760
C674        C  0.80313824  0.60680848  0.33236475    -0.12310
C675        C  0.89841968  0.70428479  0.33239487    -0.10760
C676        C  0.91123643  0.75298924  0.34963289    -0.12310
C677        C  0.64473084  0.74889680  0.12241344    -0.10760
C678        C  0.62982271  0.70009031  0.10442798    -0.12310
C679        C  0.64603980  0.84676460  0.13483819    -0.10760
C680        C  0.62000806  0.87489406  0.12681518    -0.12310
C681        C  0.74277278  0.84278742  0.12132171    -0.10760
C682        C  0.79221488  0.85624759  0.10356334    -0.12310
C683        C  0.89576428  0.61599673  0.10556026    -0.10760
C684        C  0.91870092  0.59185974  0.08879463    -0.12310
C685        C  0.77098137  0.58081792  0.06943890    -0.10760
C686        C  0.80483413  0.60804259  0.09973770    -0.12310
C687        C  0.90185822  0.70586577  0.10119214    -0.10760
C688        C  0.93063042  0.74291102  0.07260412    -0.12310
C689        C  0.83260434  0.66564179  0.19638568    -0.10830
C690        C  0.86485793  0.64507736  0.17136686     0.11320
C691        C  0.89983396  0.62611982  0.19380343    -0.10830
C692        C  0.90122371  0.62557745  0.23824502    -0.10830
C693        C  0.86732909  0.64340903  0.26403172     0.11320
C694        C  0.83381904  0.66483307  0.24221807    -0.10830
H695        H  0.80630587  0.68187953  0.18052990     0.15310
H696        H  0.92812387  0.61192874  0.17755341     0.15310
H697        H  0.93062789  0.61136169  0.25146054     0.15310
H698        H  0.80820042  0.68041107  0.26066658     0.15310
C699        C  0.62513251  0.72592382  0.38976088    -0.10760
C700        C  0.65188293  0.75980767  0.35899806    -0.12310
C701        C  0.66119141  0.84982247  0.34111054    -0.10760
C702        C  0.64060699  0.87509691  0.35997185    -0.12310
C703        C  0.75033283  0.85408523  0.35526246    -0.10760
C704        C  0.78745522  0.88214698  0.38356023    -0.12310
C705        C  0.72886799  0.86702714  0.25928789    -0.10830
C706        C  0.69557005  0.81178460  0.28397647     0.11320
C707        C  0.66035940  0.75506114  0.26164272    -0.10830
C708        C  0.65583690  0.75407170  0.21621694    -0.10830
C709        C  0.68641490  0.80990509  0.19174239     0.11320
C710        C  0.72382281  0.86614178  0.21423989    -0.10830
H711        H  0.75609535  0.91165299  0.27531786     0.15310
H712        H  0.63378058  0.71157527  0.27927733     0.15310
H713        H  0.62643339  0.70942493  0.20077351     0.15310
H714        H  0.74809957  0.90996757  0.19681822     0.15310
C715        C  0.69058301  0.81674651  0.83312003     0.00030
C716        C  0.86509269  0.64487456  0.62154293     0.00030
C717        C  0.67898512  0.81226288  0.64254624     0.00030
C718        C  0.86824768  0.64018460  0.81386551     0.00030
O719        O  0.86948435  0.96166371  0.92450089    -0.77610
O720        O  0.51156681  0.82371749  0.53073363    -0.79170
O721        O  0.90060984  0.79907741  0.91302228    -0.76190
O722        O  0.84271247  0.84858371  0.54077225    -0.74570
O723        O  0.90304817  0.91175286  0.59653165    -0.76360
O724        O  0.46525730  0.86236306  0.85777102    -0.77290
O725        O  0.90878763  0.78169947  0.01435290    -0.78620
O726        O  0.82926717  0.85951064  0.93956721    -0.78910
Eu727      Eu  0.91388208  0.86572566  0.97722797     2.39200
O728        O  0.99385590  0.89919087  0.52755025    -0.86420
O729        O  0.94655625  0.94521266  0.92625404    -0.90020
C730        C  0.82905788  0.90267468  0.91923540     1.04670
C731        C  0.95204513  0.78293280  0.53578482     1.04490
C732        C  0.92520366  0.80806684  0.87434318     1.04430
C733        C  0.84932149  0.87173126  0.57945438     1.02290
H734        H  0.50667021  0.85669823  0.93171900     0.32040
O735        O  0.50907937  0.89305118  0.94295871    -0.98810
H736        H  0.89952512  0.95443738  0.02299048     0.32070
O737        O  0.93689534  0.95738576  0.01245214    -1.01350
O738        O  0.69538124  0.00008644  0.52535991    -0.78570
O739        O  0.54428343  0.64524762  0.93201257    -0.78110
O740        O  0.58911797  0.92263973  0.86673468    -0.76550
O741        O  0.56487428  0.92895447  0.60788906    -0.79890
O742        O  0.96397244  0.53738258  0.58622158    -0.77750
O743        O  0.48170393  0.02386746  0.84927918    -0.76390
O744        O  0.70549918  0.59797422  0.91456846    -0.77920
O745        O  0.64079185  0.65461548  0.54107051    -0.79840
O746        O  0.64335052  0.53829619  0.85819187    -0.76580
O747        O  0.57915478  0.59082225  0.59720925    -0.79250
O748        O  0.62115103  0.89698686  0.92823791    -0.74990
O749        O  0.94662846  0.56542714  0.89958695    -0.75020
O750        O  0.94033718  0.56863223  0.02351244    -0.74670
O751        O  0.61284392  0.89908883  0.55872837    -0.78160
O752        O  0.72788641  0.60135346  0.51304946    -0.77590
O753        O  0.64689288  0.67995052  0.94381509    -0.75910
Eu754      Eu  0.58818672  0.92634242  0.49420658     2.39670
Eu755      Eu  0.97237973  0.53641264  0.96094263     2.39570
Eu756      Eu  0.53461673  0.96969894  0.88783029     2.38400
Eu757      Eu  0.01278896  0.98281667  0.56781327     2.39880
Eu758      Eu  0.63947574  0.59191383  0.97802624     2.39790
O759        O  0.54606852  0.56211150  0.01413370    -0.90330
O760        O  0.61368403  0.00136643  0.94148553    -0.89220
C761        C  0.73210246  0.55945083  0.53193524     1.04840
C762        C  0.60404927  0.68400379  0.92593669     1.03560
C763        C  0.61597788  0.90018966  0.88682503     1.02950
C764        C  0.59748024  0.90366302  0.59730622     1.04960
C765        C  0.94258931  0.56429186  0.56473064     1.03880
C766        C  0.45473811  0.55444642  0.86092131     1.02730
C767        C  0.69749279  0.57565164  0.87556254     1.02790
C768        C  0.61645595  0.64524285  0.57981654     1.05400
H769        H  0.57775172  0.58569167  0.89860604     0.32770
O770        O  0.56353528  0.55932101  0.92385194    -1.02490
H771        H  0.63022350  0.52761247  0.55726488     0.34820
O772        O  0.60510328  0.51408283  0.53164774    -1.05050
C773        C  0.90133635  0.60774351  0.82672292    -0.10760
C774        C  0.92835076  0.58034376  0.83310944    -0.12310
C775        C  0.75353736  0.59122216  0.85050003    -0.10760
C776        C  0.80313861  0.60680811  0.83236483    -0.12310
C777        C  0.89842002  0.70428443  0.83239490    -0.10760
C778        C  0.91123676  0.75298889  0.84963290    -0.12310
C779        C  0.64473035  0.74889731  0.62241332    -0.10760
C780        C  0.62982220  0.70009083  0.60442785    -0.12310
C781        C  0.64603941  0.84676512  0.63483833    -0.10760
C782        C  0.62000767  0.87489460  0.62681534    -0.12310
C783        C  0.74277231  0.84278789  0.62132162    -0.10760
C784        C  0.79221441  0.85624806  0.60356326    -0.12310
C785        C  0.89576392  0.61599733  0.60556008    -0.10760
C786        C  0.91870052  0.59186034  0.58879440    -0.12310
C787        C  0.77098086  0.58081835  0.56943907    -0.10760
C788        C  0.80483365  0.60804300  0.59973786    -0.12310
C789        C  0.90185767  0.70586628  0.60119233    -0.10760
C790        C  0.93062980  0.74291156  0.57260432    -0.12310
C791        C  0.83260436  0.66564203  0.69638596    -0.10830
C792        C  0.86485768  0.64507749  0.67136693     0.11320
C793        C  0.89983354  0.62611954  0.69380329    -0.10830
C794        C  0.90122342  0.62557696  0.73824488    -0.10830
C795        C  0.86732917  0.64340877  0.76403176     0.11320
C796        C  0.83381923  0.66483311  0.74221832    -0.10830
H797        H  0.80630599  0.68188002  0.68053035     0.15310
H798        H  0.92812316  0.61192826  0.67755311     0.15310
H799        H  0.93062737  0.61136081  0.75146025     0.15310
H800        H  0.80820085  0.68041124  0.76066700     0.15310
C801        C  0.62513298  0.72592337  0.88976076    -0.10760
C802        C  0.65188338  0.75980723  0.85899793    -0.12310
C803        C  0.66119169  0.84982197  0.84111052    -0.10760
C804        C  0.64060717  0.87509638  0.85997172    -0.12310
C805        C  0.75033322  0.85408490  0.85526239    -0.10760
C806        C  0.78745561  0.88214663  0.88356017    -0.12310
C807        C  0.72886825  0.86702705  0.75928787    -0.10830
C808        C  0.69557038  0.81178441  0.78397636     0.11320
C809        C  0.66035954  0.75506105  0.76164251    -0.10830
C810        C  0.65583675  0.75407183  0.71621676    -0.10830
C811        C  0.68641463  0.80990533  0.69174233     0.11320
C812        C  0.72382275  0.86614190  0.71423990    -0.10830
H813        H  0.75609576  0.91165282  0.77531792     0.15310
H814        H  0.63378075  0.71157512  0.77927705     0.15310
H815        H  0.62643310  0.70942513  0.70077327     0.15310
H816        H  0.74809945  0.90996778  0.69681832     0.15310
loop_ 
_geom_bond_atom_site_label_1 
_geom_bond_atom_site_label_2 
_geom_bond_distance 
_geom_bond_site_symmetry_2 
_ccdc_geom_bond_type 
C1           C88   1.471       .  S
C1           C89   1.418       .  S
C1           C91   1.460       .  S
C1           C94   1.528       .  S
C2           C71   1.415       .  S
C2           C74   1.463       .  S
C2           C75   1.455       .  S
C2           C78   1.536       .  S
C3           C65   1.499       .  S
C3           C67   1.532       .  S
C3           C69   1.504       .  S
C3           C97   1.537       .  S
C4           C59   1.525       .  S
C4           C62   1.494       .  S
C4           C63   1.498       .  S
C4           C81   1.540       .  S
O5           C16   1.297       .  A
O5         Eu245   2.528       .  S
O6          C425   1.296   1_455  A
O6          Eu40   2.525   1_554  S
O7           C18   1.299       .  A
O7          Eu13   2.509       .  S
O8           C19   1.300       .  A
O8         Eu115   2.516   1_554  S
O9           C19   1.299       .  A
O9          Eu43   2.509       .  S
O10         C426   1.299       .  A
O10         Eu42   2.506   1_655  S
O11         C119   1.276       .  A
O11         Eu13   2.383       .  S
O12          C16   1.277       .  A
O12         Eu13   2.387       .  S
Eu13        O110   2.516       .  S
Eu13         O23   2.351       .  S
Eu13         O15   2.338       .  S
Eu13        O116   2.337       .  S
Eu13        O429   2.354       .  S
O14         Eu43   2.286       .  S
O14        Eu115   2.337   1_554  S
O14        Eu448   2.323   1_554  S
O15        Eu245   2.314       .  S
O15        Eu450   2.280       .  S
C16          C92   1.424       .  S
C17         O414   1.296       .  A
C17         O113   1.276       .  A
C17          C76   1.423       .  S
C18         O418   1.299       .  A
C18          C64   1.465       .  S
C19          C70   1.469       .  S
H20          O21   0.962       .  S
O21         Eu42   2.405       .  S
O21        Eu421   2.354   1_455  S
O21        Eu142   2.342       .  S
H22          O23   0.961       .  S
O23        Eu245   2.333       .  S
O23        Eu145   2.404       .  S
O24         C251   1.298       .  A
O24         Eu40   2.526   1_554  S
O25          C48   1.297       .  A
O25        Eu449   2.520   1_455  S
O26          C49   1.274       .  A
O26         Eu42   2.358       .  S
O27          C50   1.335       .  A
O27        Eu451   2.689       .  S
O28          C51   1.277       .  A
O28        Eu247   2.379   1_545  S
O29         C256   1.335       .  A
O29         Eu42   2.690   1_655  S
O30          C53   1.299       .  A
O30         Eu44   2.505       .  S
O31          C54   1.298       .  A
O31        Eu146   2.502   1_554  S
O32          C53   1.297       .  A
O32        Eu246   2.494   1_545  S
O33          C54   1.299       .  A
O33        Eu655   2.504   1_545  S
O34          C49   1.293       .  A
O34        Eu142   2.451       .  S
O35         C460   1.262       .  A
O35         Eu41   2.267       .  S
O36         C153   1.281       .  A
O36         Eu41   2.391       .  S
O37          C50   1.270       .  A
O37         Eu40   2.317   1_554  S
O38          C47   1.279       .  A
O38        Eu146   2.398   1_554  S
O39          C48   1.281       .  A
O39         Eu44   2.407       .  S
Eu40        O136   2.451       .  S
Eu40        O422   2.323   1_456  S
Eu40        O123   2.342       .  S
Eu40        O262   2.345   1_556  S
Eu40        O148   2.325       .  S
Eu41        O209   2.528   1_545  S
Eu41        O433   2.520       .  S
Eu41        O219   2.314   1_545  S
Eu41        O227   2.333   1_545  S
Eu41        O453   2.318       .  S
Eu41        O464   2.336       .  S
Eu42        O236   2.494       .  S
Eu42         O46   2.397       .  S
Eu42        O423   2.280   1_455  S
Eu42        O260   2.281       .  S
Eu43        O435   2.689       .  S
Eu43        O232   2.379       .  S
Eu43        O645   2.504       .  S
Eu43        O125   2.404       .  S
Eu43        O759   2.390       .  S
Eu43        O670   2.295       .  S
Eu44        O133   2.502       .  S
Eu44        O140   2.398       .  S
Eu44         O45   2.325       .  S
Eu44         O56   2.354       .  S
Eu44        O160   2.361       .  S
Eu44        O250   2.327       .  S
O45        Eu449   2.318   1_455  S
O45        Eu757   2.390   1_545  S
O46        Eu142   2.325       .  S
O46        Eu248   2.327       .  S
C47         O228   1.298       .  A
C47          C73   1.433       .  S
C48          C87   1.433       .  S
C49          C90   1.379       .  S
C50          C68   1.476       .  S
C51         O138   1.281       .  A
C51          C72   1.364       .  S
C52         O233   1.335       .  A
C52         O443   1.262       .  A
C52         C468   1.460       .  S
C53          C61   1.461       .  S
C54          C66   1.463       .  S
H55          O56   0.962       .  S
O56        Eu449   2.336   1_455  S
O56        Eu246   2.281   1_545  S
H57          O58   0.961       .  S
O58        Eu244   2.345   1_544  S
O58        Eu655   2.295   1_545  S
O58        Eu146   2.361   1_554  S
C59          C60   1.237       .  T
C60         C460   1.460       .  S
C61          C62   1.222       .  T
C63          C64   1.225       .  T
C65          C66   1.223       .  T
C67          C68   1.241       .  T
C69          C70   1.227       .  T
C71          C72   1.168       .  T
C73          C74   1.210       .  T
C75          C76   1.203       .  T
C77          C78   1.409       .  A
C77          C82   1.414       .  A
C77          H83   1.083       .  S
C78          C79   1.412       .  A
C79          C80   1.371       .  A
C79          H84   1.081       .  S
C80          C81   1.407       .  A
C80          H85   1.078       .  S
C81          C82   1.417       .  A
C82          H86   1.083       .  S
C87          C88   1.210       .  T
C89          C90   1.176       .  T
C91          C92   1.204       .  T
C93          C94   1.411       .  A
C93          C98   1.395       .  A
C93          H99   1.084       .  S
C94          C95   1.407       .  A
C95          C96   1.406       .  A
C95         H100   1.082       .  S
C96          C97   1.416       .  A
C96         H101   1.081       .  S
C97          C98   1.407       .  A
C98         H102   1.084       .  S
C103        C190   1.471       .  S
C103        C191   1.418       .  S
C103        C193   1.460       .  S
C103        C196   1.528       .  S
C104        C173   1.415       .  S
C104        C176   1.463       .  S
C104        C177   1.455       .  S
C104        C180   1.536       .  S
C105        C167   1.499       .  S
C105        C169   1.532       .  S
C105        C171   1.504       .  S
C105        C199   1.537       .  S
C106        C161   1.525       .  S
C106        C164   1.494       .  S
C106        C165   1.498       .  S
C106        C183   1.540       .  S
O107        C118   1.297       .  A
O107       Eu347   2.528       .  S
O108        C527   1.296   1_455  A
O108       Eu142   2.525       .  S
O109        C120   1.299       .  A
O109       Eu115   2.509       .  S
O110        C121   1.300       .  A
O111        C121   1.299       .  A
O111       Eu145   2.509       .  S
O112        C528   1.299       .  A
O112       Eu144   2.506   1_655  S
O113       Eu115   2.383   1_554  S
O114        C118   1.277       .  A
O114       Eu115   2.387       .  S
Eu115       O125   2.351   1_556  S
Eu115       O117   2.338       .  S
Eu115       O531   2.354       .  S
O116       Eu145   2.286       .  S
O116       Eu550   2.323       .  S
O117       Eu347   2.314       .  S
O117       Eu552   2.280       .  S
C118        C194   1.424       .  S
C119        O516   1.296       .  A
C119        C178   1.423       .  S
C120        O520   1.299       .  A
C120        C166   1.465       .  S
C121        C172   1.469       .  S
H122        O123   0.962       .  S
O123       Eu523   2.354   1_455  S
O123       Eu144   2.405       .  S
H124        O125   0.961       .  S
O125       Eu347   2.333   1_554  S
O126        C353   1.298       .  A
O126       Eu142   2.526       .  S
O127        C150   1.297       .  A
O127       Eu551   2.520   1_455  S
O128        C151   1.274       .  A
O128       Eu144   2.358       .  S
O129        C152   1.335       .  A
O129       Eu553   2.689       .  S
O130        C153   1.277       .  A
O130       Eu349   2.379   1_545  S
O131        C358   1.335       .  A
O131       Eu144   2.690   1_655  S
O132        C155   1.299       .  A
O132       Eu146   2.505       .  S
O133        C156   1.298       .  A
O134        C155   1.297       .  A
O134       Eu348   2.494   1_545  S
O135        C156   1.299       .  A
O135       Eu757   2.504   1_545  S
O136        C151   1.293       .  A
O137        C562   1.262       .  A
O137       Eu143   2.267       .  S
O138       Eu143   2.391   1_554  S
O139        C152   1.270       .  A
O139       Eu142   2.317       .  S
O140        C149   1.279       .  A
O141        C150   1.281       .  A
O141       Eu146   2.407       .  S
Eu142       O524   2.323   1_455  S
Eu142       O364   2.345       .  S
Eu143       O311   2.528   1_545  S
Eu143       O535   2.520       .  S
Eu143       O321   2.314   1_545  S
Eu143       O329   2.333   1_546  S
Eu143       O555   2.318   1_556  S
Eu143       O566   2.336       .  S
Eu144       O338   2.494       .  S
Eu144       O525   2.280   1_455  S
Eu144       O362   2.281       .  S
Eu144       O148   2.397       .  S
Eu145       O537   2.689       .  S
Eu145       O334   2.379       .  S
Eu145       O747   2.504       .  S
Eu145       O657   2.390       .  S
Eu145       O772   2.295       .  S
Eu146       O147   2.325   1_556  S
Eu146       O158   2.354       .  S
Eu146       O352   2.327       .  S
O147       Eu551   2.318   1_454  S
O147       Eu655   2.390   1_545  S
O148       Eu350   2.327       .  S
C149        O330   1.298       .  A
C149        C175   1.433       .  S
C150        C189   1.433       .  S
C151        C192   1.379       .  S
C152        C170   1.476       .  S
C153        C174   1.364       .  S
C154        O335   1.335       .  A
C154        O545   1.262       .  A
C154        C570   1.460       .  S
C155        C163   1.461       .  S
C156        C168   1.463       .  S
H157        O158   0.962       .  S
O158       Eu551   2.336   1_455  S
O158       Eu348   2.281   1_545  S
H159        O160   0.961       .  S
O160       Eu346   2.345   1_545  S
O160       Eu757   2.295   1_545  S
C161        C162   1.237       .  T
C162        C562   1.460       .  S
C163        C164   1.222       .  T
C165        C166   1.225       .  T
C167        C168   1.223       .  T
C169        C170   1.241       .  T
C171        C172   1.227       .  T
C173        C174   1.168       .  T
C175        C176   1.210       .  T
C177        C178   1.203       .  T
C179        C180   1.409       .  A
C179        C184   1.414       .  A
C179        H185   1.083       .  S
C180        C181   1.412       .  A
C181        C182   1.371       .  A
C181        H186   1.081       .  S
C182        C183   1.407       .  A
C182        H187   1.078       .  S
C183        C184   1.417       .  A
C184        H188   1.083       .  S
C189        C190   1.210       .  T
C191        C192   1.176       .  T
C193        C194   1.204       .  T
C195        C196   1.411       .  A
C195        C200   1.395       .  A
C195        H201   1.084       .  S
C196        C197   1.407       .  A
C197        C198   1.406       .  A
C197        H202   1.082       .  S
C198        C199   1.416       .  A
C198        H203   1.081       .  S
C199        C200   1.407       .  A
C200        H204   1.084       .  S
C205        C292   1.471       .  S
C205        C293   1.418       .  S
C205        C295   1.460       .  S
C205        C298   1.528       .  S
C206        C275   1.415       .  S
C206        C278   1.463       .  S
C206        C279   1.454       .  S
C206        C282   1.536       .  S
C207        C269   1.499       .  S
C207        C271   1.532       .  S
C207        C273   1.504       .  S
C207        C301   1.537       .  S
C208        C263   1.525       .  S
C208        C266   1.494       .  S
C208        C267   1.498       .  S
C208        C285   1.540       .  S
O209        C220   1.297       .  A
O210        C629   1.296   1_455  A
O210       Eu244   2.525   1_554  S
O211        C222   1.299       .  A
O211       Eu217   2.509       .  S
O212        C223   1.300       .  A
O212       Eu319   2.516   1_554  S
O213        C223   1.299       .  A
O213       Eu247   2.509       .  S
O214        C630   1.299       .  A
O214       Eu246   2.506   1_655  S
O215        C323   1.276       .  A
O215       Eu217   2.383       .  S
O216        C220   1.277       .  A
O216       Eu217   2.387       .  S
Eu217       O314   2.516       .  S
Eu217       O227   2.351       .  S
Eu217       O219   2.338       .  S
Eu217       O320   2.337       .  S
Eu217       O633   2.354       .  S
O218       Eu319   2.337   1_554  S
O218       Eu247   2.286       .  S
O218       Eu652   2.323   1_554  S
O219       Eu654   2.280       .  S
C220        C296   1.424       .  S
C221        O618   1.296       .  A
C221        O317   1.276       .  A
C221        C280   1.423       .  S
C222        O622   1.299       .  A
C222        C268   1.465       .  S
C223        C274   1.469       .  S
H224        O225   0.962       .  S
O225       Eu625   2.354   1_455  S
O225       Eu246   2.405       .  S
O225       Eu346   2.342       .  S
H226        O227   0.961       .  S
O227       Eu349   2.404       .  S
O228       Eu244   2.526   1_544  S
O229        C252   1.297       .  A
O229       Eu653   2.520   1_455  S
O230        C253   1.274       .  A
O230       Eu246   2.358       .  S
O231        C254   1.335       .  A
O231       Eu655   2.689       .  S
O232        C255   1.277       .  A
O233       Eu246   2.690   1_645  S
O234        C257   1.299       .  A
O234       Eu248   2.505       .  S
O235        C258   1.298       .  A
O235       Eu350   2.502   1_554  S
O236        C257   1.297       .  A
O237        C258   1.299       .  A
O237       Eu451   2.504       .  S
O238        C253   1.293       .  A
O238       Eu346   2.451       .  S
O239        C664   1.262       .  A
O239       Eu245   2.267       .  S
O240        C357   1.281       .  A
O240       Eu245   2.391       .  S
O241        C254   1.270       .  A
O241       Eu244   2.317   1_554  S
O242        C251   1.279       .  A
O242       Eu350   2.398   1_554  S
O243        C252   1.281       .  A
O243       Eu248   2.407       .  S
Eu244       O340   2.451       .  S
Eu244       O626   2.323   1_456  S
Eu244       O327   2.342       .  S
Eu244       O352   2.325   1_565  S
Eu245       O637   2.520       .  S
Eu245       O657   2.318       .  S
Eu245       O668   2.336       .  S
Eu246       O627   2.280   1_455  S
Eu246       O250   2.397   1_565  S
Eu247       O639   2.689       .  S
Eu247       O441   2.504   1_565  S
Eu247       O329   2.404       .  S
Eu247       O555   2.390   1_565  S
Eu247       O466   2.295   1_565  S
Eu248       O337   2.502       .  S
Eu248       O344   2.398       .  S
Eu248       O249   2.325       .  S
Eu248       O260   2.354       .  S
Eu248       O364   2.361       .  S
O249       Eu653   2.318   1_455  S
O249       Eu553   2.390       .  S
O250       Eu346   2.325   1_545  S
C251        C277   1.433       .  S
C252        C291   1.433       .  S
C253        C294   1.379       .  S
C254        C272   1.476       .  S
C255        O342   1.281       .  A
C255        C276   1.364       .  S
C256        O647   1.262       .  A
C256        C672   1.460       .  S
C257        C265   1.461       .  S
C258        C270   1.463       .  S
H259        O260   0.962       .  S
O260       Eu653   2.336   1_455  S
H261        O262   0.961       .  S
O262       Eu451   2.295       .  S
O262       Eu350   2.361   1_554  S
C263        C264   1.237       .  T
C264        C664   1.460       .  S
C265        C266   1.222       .  T
C267        C268   1.225       .  T
C269        C270   1.223       .  T
C271        C272   1.241       .  T
C273        C274   1.227       .  T
C275        C276   1.168       .  T
C277        C278   1.210       .  T
C279        C280   1.203       .  T
C281        C282   1.409       .  A
C281        C286   1.414       .  A
C281        H287   1.083       .  S
C282        C283   1.412       .  A
C283        C284   1.371       .  A
C283        H288   1.081       .  S
C284        C285   1.407       .  A
C284        H289   1.078       .  S
C285        C286   1.417       .  A
C286        H290   1.083       .  S
C291        C292   1.210       .  T
C293        C294   1.176       .  T
C295        C296   1.204       .  T
C297        C298   1.411       .  A
C297        C302   1.395       .  A
C297        H303   1.084       .  S
C298        C299   1.407       .  A
C299        C300   1.406       .  A
C299        H304   1.082       .  S
C300        C301   1.416       .  A
C300        H305   1.081       .  S
C301        C302   1.407       .  A
C302        H306   1.084       .  S
C307        C394   1.471       .  S
C307        C395   1.418       .  S
C307        C397   1.460       .  S
C307        C400   1.528       .  S
C308        C377   1.415       .  S
C308        C380   1.463       .  S
C308        C381   1.454       .  S
C308        C384   1.536       .  S
C309        C371   1.499       .  S
C309        C373   1.532       .  S
C309        C375   1.504       .  S
C309        C403   1.537       .  S
C310        C365   1.525       .  S
C310        C368   1.494       .  S
C310        C369   1.498       .  S
C310        C387   1.540       .  S
O311        C322   1.297       .  A
O312        C731   1.296   1_455  A
O312       Eu346   2.525       .  S
O313        C324   1.299       .  A
O313       Eu319   2.509       .  S
O314        C325   1.300       .  A
O315        C325   1.299       .  A
O315       Eu349   2.509       .  S
O316        C732   1.299       .  A
O316       Eu348   2.506   1_655  S
O317       Eu319   2.383   1_554  S
O318        C322   1.277       .  A
O318       Eu319   2.387       .  S
Eu319       O329   2.351   1_556  S
Eu319       O321   2.338       .  S
Eu319       O735   2.354       .  S
O320       Eu349   2.286       .  S
O320       Eu754   2.323       .  S
O321       Eu756   2.280       .  S
C322        C398   1.424       .  S
C323        O720   1.296       .  A
C323        C382   1.423       .  S
C324        O724   1.299       .  A
C324        C370   1.465       .  S
C325        C376   1.469       .  S
H326        O327   0.962       .  S
O327       Eu727   2.354   1_455  S
O327       Eu348   2.405       .  S
H328        O329   0.961       .  S
O330       Eu346   2.526   1_545  S
O331        C354   1.297       .  A
O331       Eu755   2.520   1_455  S
O332        C355   1.274       .  A
O332       Eu348   2.358       .  S
O333        C356   1.335       .  A
O333       Eu757   2.689       .  S
O334        C357   1.277       .  A
O335       Eu348   2.690   1_645  S
O336        C359   1.299       .  A
O336       Eu350   2.505       .  S
O337        C360   1.298       .  A
O338        C359   1.297       .  A
O339        C360   1.299       .  A
O339       Eu553   2.504       .  S
O340        C355   1.293       .  A
O341        C766   1.262       .  A
O341       Eu347   2.267       .  S
O342       Eu347   2.391   1_554  S
O343        C356   1.270       .  A
O343       Eu346   2.317       .  S
O344        C353   1.279       .  A
O345        C354   1.281       .  A
O345       Eu350   2.407       .  S
Eu346       O728   2.323   1_455  S
Eu347       O739   2.520       .  S
Eu347       O759   2.318   1_556  S
Eu347       O770   2.336       .  S
Eu348       O729   2.280   1_455  S
Eu348       O352   2.397   1_565  S
Eu349       O741   2.689       .  S
Eu349       O543   2.504   1_565  S
Eu349       O453   2.390   1_565  S
Eu349       O568   2.295   1_565  S
Eu350       O351   2.325   1_556  S
Eu350       O362   2.354       .  S
O351       Eu755   2.318   1_454  S
O351       Eu451   2.390       .  S
C353        C379   1.433       .  S
C354        C393   1.433       .  S
C355        C396   1.379       .  S
C356        C374   1.476       .  S
C357        C378   1.364       .  S
C358        O749   1.262       .  A
C358        C774   1.460       .  S
C359        C367   1.461       .  S
C360        C372   1.463       .  S
H361        O362   0.962       .  S
O362       Eu755   2.336   1_455  S
H363        O364   0.961       .  S
O364       Eu553   2.295       .  S
C365        C366   1.237       .  T
C366        C766   1.460       .  S
C367        C368   1.222       .  T
C369        C370   1.225       .  T
C371        C372   1.223       .  T
C373        C374   1.241       .  T
C375        C376   1.227       .  T
C377        C378   1.168       .  T
C379        C380   1.210       .  T
C381        C382   1.203       .  T
C383        C384   1.409       .  A
C383        C388   1.414       .  A
C383        H389   1.083       .  S
C384        C385   1.412       .  A
C385        C386   1.371       .  A
C385        H390   1.081       .  S
C386        C387   1.407       .  A
C386        H391   1.078       .  S
C387        C388   1.417       .  A
C388        H392   1.083       .  S
C393        C394   1.210       .  T
C395        C396   1.176       .  T
C397        C398   1.204       .  T
C399        C400   1.411       .  A
C399        C404   1.395       .  A
C399        H405   1.084       .  S
C400        C401   1.407       .  A
C401        C402   1.406       .  A
C401        H406   1.082       .  S
C402        C403   1.416       .  A
C402        H407   1.081       .  S
C403        C404   1.407       .  A
C404        H408   1.084       .  S
C409        C496   1.471       .  S
C409        C497   1.418       .  S
C409        C499   1.460       .  S
C409        C502   1.528       .  S
C410        C479   1.415       .  S
C410        C482   1.463       .  S
C410        C483   1.455       .  S
C410        C486   1.536       .  S
C411        C473   1.499       .  S
C411        C475   1.532       .  S
C411        C477   1.504       .  S
C411        C505   1.537       .  S
C412        C467   1.525       .  S
C412        C470   1.494       .  S
C412        C471   1.498       .  S
C412        C489   1.540       .  S
O413        C424   1.297       .  A
O413       Eu653   2.528       .  S
O414       Eu448   2.525   1_554  S
O415        C426   1.299       .  A
O415       Eu421   2.509       .  S
O416        C427   1.300       .  A
O416       Eu523   2.516   1_554  S
O417        C427   1.299       .  A
O417       Eu451   2.509   1_655  S
O418       Eu450   2.506       .  S
O419        C527   1.276       .  A
O419       Eu421   2.383       .  S
O420        C424   1.277       .  A
O420       Eu421   2.387       .  S
Eu421       O518   2.516       .  S
Eu421       O431   2.351       .  S
Eu421       O423   2.338       .  S
Eu421       O524   2.337       .  S
O422       Eu523   2.337   1_554  S
O422       Eu451   2.286   1_655  S
O423       Eu653   2.314       .  S
C424        C500   1.424       .  S
C425        O521   1.276       .  A
C425        C484   1.423       .  S
C426        C472   1.465       .  S
C427        C478   1.469       .  S
H428        O429   0.962       .  S
O429       Eu450   2.405       .  S
O429       Eu550   2.342       .  S
H430        O431   0.961       .  S
O431       Eu653   2.333       .  S
O431       Eu553   2.404   1_655  S
O432        C659   1.298       .  A
O432       Eu448   2.526   1_554  S
O433        C456   1.297       .  A
O434        C457   1.274       .  A
O434       Eu450   2.358       .  S
O435        C458   1.335       .  A
O436        C459   1.277       .  A
O436       Eu655   2.379   1_645  S
O437        C664   1.335       .  A
O437       Eu450   2.690       .  S
O438        C461   1.299       .  A
O438       Eu452   2.505       .  S
O439        C462   1.298       .  A
O439       Eu554   2.502   1_554  S
O440        C461   1.297       .  A
O440       Eu654   2.494   1_545  S
O441        C462   1.299       .  A
O442        C457   1.293       .  A
O442       Eu550   2.451       .  S
O443       Eu449   2.267       .  S
O444        C561   1.281       .  A
O444       Eu449   2.391       .  S
O445        C458   1.270       .  A
O445       Eu448   2.317   1_554  S
O446        C455   1.279       .  A
O446       Eu554   2.398   1_554  S
O447        C456   1.281       .  A
O447       Eu452   2.407       .  S
Eu448       O544   2.451       .  S
Eu448       O531   2.342       .  S
Eu448       O670   2.345   1_556  S
Eu448       O556   2.325       .  S
Eu449       O617   2.528   1_545  S
Eu449       O627   2.314   1_545  S
Eu449       O635   2.333   1_545  S
Eu450       O644   2.494       .  S
Eu450       O668   2.281       .  S
Eu450       O454   2.397       .  S
Eu451       O640   2.379   1_455  S
Eu451       O533   2.404   1_455  S
Eu452       O541   2.502       .  S
Eu452       O548   2.398       .  S
Eu452       O453   2.325       .  S
Eu452       O464   2.354       .  S
Eu452       O568   2.361       .  S
Eu452       O658   2.327       .  S
O454       Eu550   2.325       .  S
O454       Eu656   2.327       .  S
C455        O636   1.298       .  A
C455        C481   1.433       .  S
C456        C495   1.433       .  S
C457        C498   1.379       .  S
C458        C476   1.476       .  S
C459        O546   1.281       .  A
C459        C480   1.364       .  S
C460        O641   1.335       .  A
C461        C469   1.461       .  S
C462        C474   1.463       .  S
H463        O464   0.962       .  S
O464       Eu654   2.281   1_545  S
H465        O466   0.961       .  S
O466       Eu652   2.345   1_544  S
O466       Eu554   2.361   1_554  S
C467        C468   1.237       .  T
C469        C470   1.222       .  T
C471        C472   1.225       .  T
C473        C474   1.223       .  T
C475        C476   1.241       .  T
C477        C478   1.227       .  T
C479        C480   1.168       .  T
C481        C482   1.210       .  T
C483        C484   1.203       .  T
C485        C486   1.409       .  A
C485        C490   1.414       .  A
C485        H491   1.083       .  S
C486        C487   1.412       .  A
C487        C488   1.371       .  A
C487        H492   1.081       .  S
C488        C489   1.407       .  A
C488        H493   1.078       .  S
C489        C490   1.417       .  A
C490        H494   1.083       .  S
C495        C496   1.210       .  T
C497        C498   1.176       .  T
C499        C500   1.204       .  T
C501        C502   1.411       .  A
C501        C506   1.395       .  A
C501        H507   1.084       .  S
C502        C503   1.407       .  A
C503        C504   1.406       .  A
C503        H508   1.082       .  S
C504        C505   1.416       .  A
C504        H509   1.081       .  S
C505        C506   1.407       .  A
C506        H510   1.084       .  S
C511        C598   1.471       .  S
C511        C599   1.418       .  S
C511        C601   1.460       .  S
C511        C604   1.528       .  S
C512        C581   1.415       .  S
C512        C584   1.463       .  S
C512        C585   1.455       .  S
C512        C588   1.536       .  S
C513        C575   1.499       .  S
C513        C577   1.532       .  S
C513        C579   1.504       .  S
C513        C607   1.537       .  S
C514        C569   1.525       .  S
C514        C572   1.494       .  S
C514        C573   1.498       .  S
C514        C591   1.540       .  S
O515        C526   1.297       .  A
O515       Eu755   2.528       .  S
O516       Eu550   2.525       .  S
O517        C528   1.299       .  A
O517       Eu523   2.509       .  S
O518        C529   1.300       .  A
O519        C529   1.299       .  A
O519       Eu553   2.509   1_655  S
O520       Eu552   2.506       .  S
O521       Eu523   2.383   1_554  S
O522        C526   1.277       .  A
O522       Eu523   2.387       .  S
Eu523       O533   2.351   1_556  S
Eu523       O525   2.338       .  S
O524       Eu553   2.286   1_655  S
O525       Eu755   2.314       .  S
C526        C602   1.424       .  S
C527        C586   1.423       .  S
C528        C574   1.465       .  S
C529        C580   1.469       .  S
H530        O531   0.962       .  S
O531       Eu552   2.405       .  S
H532        O533   0.961       .  S
O533       Eu755   2.333   1_554  S
O534        C761   1.298       .  A
O534       Eu550   2.526       .  S
O535        C558   1.297       .  A
O536        C559   1.274       .  A
O536       Eu552   2.358       .  S
O537        C560   1.335       .  A
O538        C561   1.277       .  A
O538       Eu757   2.379   1_645  S
O539        C766   1.335       .  A
O539       Eu552   2.690       .  S
O540        C563   1.299       .  A
O540       Eu554   2.505       .  S
O541        C564   1.298       .  A
O542        C563   1.297       .  A
O542       Eu756   2.494   1_545  S
O543        C564   1.299       .  A
O544        C559   1.293       .  A
O545       Eu551   2.267       .  S
O546       Eu551   2.391   1_554  S
O547        C560   1.270       .  A
O547       Eu550   2.317       .  S
O548        C557   1.279       .  A
O549        C558   1.281       .  A
O549       Eu554   2.407       .  S
Eu550       O772   2.345       .  S
Eu551       O719   2.528   1_545  S
Eu551       O729   2.314   1_545  S
Eu551       O737   2.333   1_546  S
Eu552       O746   2.494       .  S
Eu552       O770   2.281       .  S
Eu552       O556   2.397       .  S
Eu553       O742   2.379   1_455  S
Eu554       O555   2.325   1_556  S
Eu554       O566   2.354       .  S
Eu554       O760   2.327       .  S
O556       Eu758   2.327       .  S
C557        O738   1.298       .  A
C557        C583   1.433       .  S
C558        C597   1.433       .  S
C559        C600   1.379       .  S
C560        C578   1.476       .  S
C561        C582   1.364       .  S
C562        O743   1.335       .  A
C563        C571   1.461       .  S
C564        C576   1.463       .  S
H565        O566   0.962       .  S
O566       Eu756   2.281   1_545  S
H567        O568   0.961       .  S
O568       Eu754   2.345   1_545  S
C569        C570   1.237       .  T
C571        C572   1.222       .  T
C573        C574   1.225       .  T
C575        C576   1.223       .  T
C577        C578   1.241       .  T
C579        C580   1.227       .  T
C581        C582   1.168       .  T
C583        C584   1.210       .  T
C585        C586   1.203       .  T
C587        C588   1.409       .  A
C587        C592   1.414       .  A
C587        H593   1.083       .  S
C588        C589   1.412       .  A
C589        C590   1.371       .  A
C589        H594   1.081       .  S
C590        C591   1.407       .  A
C590        H595   1.078       .  S
C591        C592   1.417       .  A
C592        H596   1.083       .  S
C597        C598   1.210       .  T
C599        C600   1.176       .  T
C601        C602   1.204       .  T
C603        C604   1.411       .  A
C603        C608   1.395       .  A
C603        H609   1.084       .  S
C604        C605   1.407       .  A
C605        C606   1.406       .  A
C605        H610   1.082       .  S
C606        C607   1.416       .  A
C606        H611   1.081       .  S
C607        C608   1.407       .  A
C608        H612   1.084       .  S
C613        C700   1.471       .  S
C613        C701   1.418       .  S
C613        C703   1.460       .  S
C613        C706   1.528       .  S
C614        C683   1.415       .  S
C614        C686   1.463       .  S
C614        C687   1.454       .  S
C614        C690   1.536       .  S
C615        C677   1.499       .  S
C615        C679   1.532       .  S
C615        C681   1.504       .  S
C615        C709   1.537       .  S
C616        C671   1.525       .  S
C616        C674   1.494       .  S
C616        C675   1.498       .  S
C616        C693   1.540       .  S
O617        C628   1.297       .  A
O618       Eu652   2.525   1_554  S
O619        C630   1.299       .  A
O619       Eu625   2.509       .  S
O620        C631   1.300       .  A
O620       Eu727   2.516   1_554  S
O621        C631   1.299       .  A
O621       Eu655   2.509   1_655  S
O622       Eu654   2.506       .  S
O623        C731   1.276       .  A
O623       Eu625   2.383       .  S
O624        C628   1.277       .  A
O624       Eu625   2.387       .  S
Eu625       O722   2.516       .  S
Eu625       O635   2.351       .  S
Eu625       O627   2.338       .  S
Eu625       O728   2.337       .  S
O626       Eu727   2.337   1_554  S
O626       Eu655   2.286   1_655  S
C628        C704   1.424       .  S
C629        O725   1.276       .  A
C629        C688   1.423       .  S
C630        C676   1.465       .  S
C631        C682   1.469       .  S
H632        O633   0.962       .  S
O633       Eu654   2.405       .  S
O633       Eu754   2.342       .  S
H634        O635   0.961       .  S
O635       Eu757   2.404   1_655  S
O636       Eu652   2.526   1_544  S
O637        C660   1.297       .  A
O638        C661   1.274       .  A
O638       Eu654   2.358       .  S
O639        C662   1.335       .  A
O640        C663   1.277       .  A
O641       Eu654   2.690   1_545  S
O642        C665   1.299       .  A
O642       Eu656   2.505       .  S
O643        C666   1.298       .  A
O643       Eu758   2.502   1_554  S
O644        C665   1.297       .  A
O645        C666   1.299       .  A
O646        C661   1.293       .  A
O646       Eu754   2.451       .  S
O647       Eu653   2.267       .  S
O648        C765   1.281       .  A
O648       Eu653   2.391       .  S
O649        C662   1.270       .  A
O649       Eu652   2.317   1_554  S
O650        C659   1.279       .  A
O650       Eu758   2.398   1_554  S
O651        C660   1.281       .  A
O651       Eu656   2.407       .  S
Eu652       O748   2.451       .  S
Eu652       O735   2.342       .  S
Eu652       O760   2.325   1_565  S
Eu654       O658   2.397   1_565  S
Eu655       O737   2.404   1_455  S
Eu656       O745   2.502       .  S
Eu656       O752   2.398       .  S
Eu656       O657   2.325       .  S
Eu656       O668   2.354       .  S
Eu656       O772   2.361       .  S
O658       Eu754   2.325   1_545  S
C659        C685   1.433       .  S
C660        C699   1.433       .  S
C661        C702   1.379       .  S
C662        C680   1.476       .  S
C663        O750   1.281       .  A
C663        C684   1.364       .  S
C665        C673   1.461       .  S
C666        C678   1.463       .  S
H667        O668   0.962       .  S
H669        O670   0.961       .  S
O670       Eu758   2.361   1_554  S
C671        C672   1.237       .  T
C673        C674   1.222       .  T
C675        C676   1.225       .  T
C677        C678   1.223       .  T
C679        C680   1.241       .  T
C681        C682   1.227       .  T
C683        C684   1.168       .  T
C685        C686   1.210       .  T
C687        C688   1.203       .  T
C689        C690   1.409       .  A
C689        C694   1.414       .  A
C689        H695   1.083       .  S
C690        C691   1.412       .  A
C691        C692   1.371       .  A
C691        H696   1.081       .  S
C692        C693   1.407       .  A
C692        H697   1.078       .  S
C693        C694   1.417       .  A
C694        H698   1.083       .  S
C699        C700   1.210       .  T
C701        C702   1.176       .  T
C703        C704   1.204       .  T
C705        C706   1.411       .  A
C705        C710   1.395       .  A
C705        H711   1.084       .  S
C706        C707   1.407       .  A
C707        C708   1.406       .  A
C707        H712   1.082       .  S
C708        C709   1.416       .  A
C708        H713   1.081       .  S
C709        C710   1.407       .  A
C710        H714   1.084       .  S
C715        C802   1.471       .  S
C715        C803   1.418       .  S
C715        C805   1.460       .  S
C715        C808   1.528       .  S
C716        C785   1.415       .  S
C716        C788   1.463       .  S
C716        C789   1.454       .  S
C716        C792   1.536       .  S
C717        C779   1.499       .  S
C717        C781   1.532       .  S
C717        C783   1.504       .  S
C717        C811   1.537       .  S
C718        C773   1.525       .  S
C718        C776   1.494       .  S
C718        C777   1.498       .  S
C718        C795   1.540       .  S
O719        C730   1.297       .  A
O720       Eu754   2.525       .  S
O721        C732   1.299       .  A
O721       Eu727   2.509       .  S
O722        C733   1.300       .  A
O723        C733   1.299       .  A
O723       Eu757   2.509   1_655  S
O724       Eu756   2.506       .  S
O725       Eu727   2.383   1_554  S
O726        C730   1.277       .  A
O726       Eu727   2.387       .  S
Eu727       O737   2.351   1_556  S
Eu727       O729   2.338       .  S
O728       Eu757   2.286   1_655  S
C730        C806   1.424       .  S
C731        C790   1.423       .  S
C732        C778   1.465       .  S
C733        C784   1.469       .  S
H734        O735   0.962       .  S
O735       Eu756   2.405       .  S
H736        O737   0.961       .  S
O738       Eu754   2.526   1_545  S
O739        C762   1.297       .  A
O740        C763   1.274       .  A
O740       Eu756   2.358       .  S
O741        C764   1.335       .  A
O742        C765   1.277       .  A
O743       Eu756   2.690   1_545  S
O744        C767   1.299       .  A
O744       Eu758   2.505       .  S
O745        C768   1.298       .  A
O746        C767   1.297       .  A
O747        C768   1.299       .  A
O748        C763   1.293       .  A
O749       Eu755   2.267       .  S
O750       Eu755   2.391   1_554  S
O751        C764   1.270       .  A
O751       Eu754   2.317       .  S
O752        C761   1.279       .  A
O753        C762   1.281       .  A
O753       Eu758   2.407       .  S
Eu756       O760   2.397   1_565  S
Eu758       O759   2.325   1_556  S
Eu758       O770   2.354       .  S
C761        C787   1.433       .  S
C762        C801   1.433       .  S
C763        C804   1.379       .  S
C764        C782   1.476       .  S
C765        C786   1.364       .  S
C767        C775   1.461       .  S
C768        C780   1.463       .  S
H769        O770   0.962       .  S
H771        O772   0.961       .  S
C773        C774   1.237       .  T
C775        C776   1.222       .  T
C777        C778   1.225       .  T
C779        C780   1.223       .  T
C781        C782   1.241       .  T
C783        C784   1.227       .  T
C785        C786   1.168       .  T
C787        C788   1.210       .  T
C789        C790   1.203       .  T
C791        C792   1.409       .  A
C791        C796   1.414       .  A
C791        H797   1.083       .  S
C792        C793   1.412       .  A
C793        C794   1.371       .  A
C793        H798   1.081       .  S
C794        C795   1.407       .  A
C794        H799   1.078       .  S
C795        C796   1.417       .  A
C796        H800   1.083       .  S
C801        C802   1.210       .  T
C803        C804   1.176       .  T
C805        C806   1.204       .  T
C807        C808   1.411       .  A
C807        C812   1.395       .  A
C807        H813   1.084       .  S
C808        C809   1.407       .  A
C809        C810   1.406       .  A
C809        H814   1.082       .  S
C810        C811   1.416       .  A
C810        H815   1.081       .  S
C811        C812   1.407       .  A
C812        H816   1.084       .  S
