geometry optimzed in LAMMPS
_audit_creation_date              2020-11-30 
_audit_creation_method            'lammps2cif' 
_symmetry_space_group_name_H-M    'P1' 
_symmetry_Int_Tables_number       1 
_symmetry_cell_setting            triclinic 
loop_ 
_symmetry_equiv_pos_as_xyz 
  x,y,z 
_cell_length_a                    48.24620750410753 
_cell_length_b                    48.31703220490106 
_cell_length_c                    37.40316663947236 
_cell_angle_alpha                 90.001592446531 
_cell_angle_beta                  90.05054505085299 
_cell_angle_gamma                 120.59813124521065 
loop_ 
_atom_site_label 
_atom_site_type_symbol 
_atom_site_fract_x 
_atom_site_fract_y 
_atom_site_fract_z 
_atom_site_charge 
O1          O  0.45937058  0.23247207  0.28753922    -0.72990
O2          O  0.01539041  0.29075144  0.21570544    -0.73020
O3          O  0.45998393  0.23233464  0.21564261    -0.73070
O4          O  0.01443557  0.29110792  0.28761272    -0.73120
O5          O  0.04425577  0.26778749  0.28862968    -0.73050
O6          O  0.48942195  0.20859916  0.21667596    -0.73030
O7          O  0.04479291  0.26697984  0.21672193    -0.73010
O8          O  0.48920305  0.20916361  0.28853150    -0.73070
Ni9        Ni  0.48626601  0.26256009  0.25157682     1.25410
Ni10       Ni  0.01794816  0.23725189  0.25266409     1.25360
C11         C  0.46491667  0.21084398  0.29918809     0.89190
C12         C  0.03959414  0.28878867  0.20511314     0.89120
C13         C  0.46537677  0.21037253  0.20506867     0.89150
C14         C  0.03851469  0.28953637  0.29933284     0.89320
O15         O  0.22067045  0.20842697  0.03372534    -0.72990
O16         O  0.22196179  0.26587264  0.46170399    -0.73020
O17         O  0.22105797  0.20880348  0.46178882    -0.73070
O18         O  0.22108066  0.26531007  0.03379674    -0.73120
O19         O  0.27483021  0.29173776  0.03441531    -0.73050
O20         O  0.27480147  0.23486785  0.46240435    -0.73030
O21         O  0.27570310  0.29193545  0.46240081    -0.73010
O22         O  0.27442583  0.23485387  0.03441690    -0.73070
Ni23       Ni  0.21927053  0.23613026  0.99774878     1.25410
Ni24       Ni  0.27686241  0.26433279  0.99844925     1.25360
C25         C  0.24727584  0.21172348  0.04507937     0.89190
C26         C  0.24925299  0.28878351  0.45086309     0.89120
C27         C  0.24770856  0.21201079  0.45097091     0.89150
C28         C  0.24802858  0.28832829  0.04517410     0.89320
O29         O  0.48816698  0.27860982  0.03591007    -0.72990
O30         O  0.04260172  0.27448266  0.46386712    -0.73020
O31         O  0.48794614  0.27826960  0.46389046    -0.73070
O32         O  0.04284358  0.27474892  0.03585861    -0.73120
O33         O  0.01224816  0.22119160  0.03607564    -0.73050
O34         O  0.45744375  0.22470359  0.46411455    -0.73030
O35         O  0.01208451  0.22092214  0.46413699    -0.73010
O36         O  0.45761634  0.22505553  0.03613475    -0.73070
Ni37       Ni  0.01644585  0.27845498  0.49988160     1.25410
Ni38       Ni  0.48378712  0.22105584  0.50013351     1.25360
C39         C  0.46359579  0.25264809  0.04712885     0.89190
C40         C  0.03663478  0.24689034  0.45290178     0.89120
C41         C  0.46336885  0.25219160  0.45286976     0.89150
C42         C  0.03692966  0.24721692  0.04697905     0.89320
C43         C  0.37050217  0.08917793  0.10938146     0.04570
C44         C  0.38272823  0.11902527  0.12669583    -0.11580
C45         C  0.41239819  0.13245505  0.14476844     0.02070
C46         C  0.42932515  0.11609862  0.14574923    -0.10110
C47         C  0.41723336  0.08672639  0.12831267     0.04560
C48         C  0.38798812  0.07333549  0.10999425    -0.09530
H49         H  0.36944355  0.13157254  0.12607629     0.10160
H50         H  0.45219100  0.12640609  0.15972546     0.07680
H51         H  0.37883648  0.05050087  0.09631204     0.07530
C52         C  0.13464109  0.40949294  0.10945944     0.04570
C53         C  0.12247504  0.37944541  0.12609310    -0.11580
C54         C  0.09367521  0.36652760  0.14553637     0.02070
C55         C  0.07775008  0.38370138  0.14885431    -0.10110
C56         C  0.08919357  0.41325613  0.13154874     0.04560
C57         C  0.11770249  0.42587176  0.11158366    -0.09530
H58         H  0.13524264  0.36643658  0.12406680     0.10160
H59         H  0.05654222  0.37390361  0.16561487     0.07680
H60         H  0.12688941  0.44852790  0.09759090     0.07530
C61         C  0.48274775  0.01604996  0.12307086     0.03730
C62         C  0.46490887  0.48174468  0.11941292     0.03730
C63         C  0.48338224  0.46586140  0.12568255     0.03730
C64         C  0.01823970  0.48323273  0.13143070     0.03730
C65         C  0.03406980  0.01744590  0.12751271     0.03730
C66         C  0.01654976  0.03330309  0.12522748     0.03730
C67         C  0.27307920  0.40996994  0.13894240     0.04570
C68         C  0.25487187  0.37930632  0.12314751    -0.11580
C69         C  0.27074827  0.36636359  0.10396531     0.02070
C70         C  0.30418820  0.38399749  0.10065181    -0.10110
C71         C  0.32254180  0.41410305  0.11702028     0.04560
C72         C  0.30675786  0.42707378  0.13595265    -0.09530
H73         H  0.22888148  0.36583616  0.12568565     0.10160
H74         H  0.31597662  0.37407961  0.08495937     0.07680
H75         H  0.32072517  0.45030262  0.14886356     0.07530
C76         C  0.09014945  0.22240996  0.10712848     0.04570
C77         C  0.07356690  0.18874506  0.10688540    -0.11580
C78         C  0.08595385  0.17209029  0.12498868     0.02070
C79         C  0.11532810  0.18916385  0.14301920    -0.10110
C80         C  0.13263627  0.22283339  0.14270913     0.04560
C81         C  0.11997731  0.23967968  0.12490152    -0.09530
H82         H  0.05071237  0.17539729  0.09298401     0.10160
H83         H  0.12490701  0.17613615  0.15695144     0.07680
H84         H  0.13308597  0.26573993  0.12488512     0.07530
C85         C  0.22102828  0.09103592  0.14139309     0.04570
C86         C  0.18735944  0.07578140  0.14147072    -0.11580
C87         C  0.17182957  0.08941423  0.12337086     0.02070
C88         C  0.18985541  0.11848418  0.10541341    -0.10110
C89         C  0.22346689  0.13446870  0.10573032     0.04560
C90         C  0.23934926  0.12073075  0.12359549    -0.09530
H91         H  0.17313239  0.05308868  0.15534921     0.10160
H92         H  0.17757615  0.12890733  0.09151746     0.07680
H93         H  0.26541207  0.13290268  0.12367210     0.07530
C94         C  0.41028270  0.27695293  0.10800653     0.04570
C95         C  0.42708377  0.31059055  0.10843424    -0.11580
C96         C  0.41406453  0.32744722  0.12503844     0.02070
C97         C  0.38380289  0.31005546  0.14142796    -0.10110
C98         C  0.36682516  0.27640134  0.14161653     0.04560
C99         C  0.37999783  0.25961567  0.12475839    -0.09530
H100        H  0.45064986  0.32366035  0.09606311     0.10160
H101        H  0.37318579  0.32271805  0.15395115     0.07680
H102        H  0.36694271  0.23355925  0.12469933     0.07530
C103        C  0.36886418  0.08936885  0.39292332     0.04570
C104        C  0.38214702  0.11959824  0.37649347    -0.11580
C105        C  0.41236459  0.13297723  0.35990853     0.02070
C106        C  0.42903631  0.11627954  0.35995353    -0.10110
C107        C  0.41574210  0.08604026  0.37624189     0.04560
C108        C  0.38555629  0.07275396  0.39262785    -0.09530
H109        H  0.36918316  0.13247826  0.37659277     0.10160
H110        H  0.45253344  0.12701683  0.34743015     0.07680
H111        H  0.37475362  0.04918515  0.40493063     0.07530
C112        C  0.13339362  0.41181291  0.39292499     0.04570
C113        C  0.12029721  0.38149706  0.37671582    -0.11580
C114        C  0.08995255  0.36768110  0.36030506     0.02070
C115        C  0.07288366  0.38397701  0.36038882    -0.10110
C116        C  0.08596085  0.41438317  0.37631233     0.04560
C117        C  0.11638529  0.42815000  0.39244582    -0.09530
H118        H  0.13351179  0.36886762  0.37685917     0.10160
H119        H  0.04922242  0.37274831  0.34815562     0.07680
H120        H  0.12710707  0.45181872  0.40448583     0.07530
C121        C  0.48270954  0.01583019  0.37467647     0.03730
C122        C  0.46549100  0.48191705  0.37452094     0.03730
C123        C  0.48240462  0.46521054  0.37492189     0.03730
C124        C  0.01639969  0.48242442  0.37498716     0.03730
C125        C  0.03350222  0.01633743  0.37478314     0.03730
C126        C  0.01664430  0.03304171  0.37486650     0.03730
C127        C  0.22298019  0.09111532  0.35643041     0.04570
C128        C  0.24040474  0.12134018  0.37320537    -0.11580
C129        C  0.22365688  0.13467236  0.38976825     0.02070
C130        C  0.18993854  0.11785287  0.38934482    -0.10110
C131        C  0.17250337  0.08767372  0.37282289     0.04560
C132        C  0.18931218  0.07454259  0.35642467    -0.09530
H133        H  0.26649652  0.13421768  0.37340722     0.10160
H134        H  0.17724754  0.12845910  0.40183652     0.07680
H135        H  0.17615622  0.05102722  0.34396632     0.07530
C136        C  0.08992944  0.22241913  0.39235855     0.04570
C137        C  0.12009016  0.23974372  0.37535012    -0.11580
C138        C  0.13324184  0.22293943  0.35850984     0.02070
C139        C  0.11632510  0.18929518  0.35883055    -0.10110
C140        C  0.08627013  0.17193624  0.37560966     0.04560
C141        C  0.07328887  0.18876490  0.39233708    -0.09530
H142        H  0.13306743  0.26580036  0.37520731     0.10160
H143        H  0.12682223  0.17657966  0.34615160     0.07680
H144        H  0.04988735  0.17563382  0.40507551     0.07530
C145        C  0.27588423  0.41025173  0.35626028     0.04570
C146        C  0.25813266  0.37999398  0.37286374    -0.11580
C147        C  0.27450451  0.36619146  0.38929649     0.02070
C148        C  0.30821142  0.38252477  0.38883027    -0.10110
C149        C  0.32608754  0.41281618  0.37263475     0.04560
C150        C  0.30958528  0.42645910  0.35644492    -0.09530
H151        H  0.23204854  0.36743289  0.37302653     0.10160
H152        H  0.32052487  0.37140843  0.40106766     0.07680
H153        H  0.32297135  0.45003409  0.34421916     0.07530
C154        C  0.40972535  0.27609272  0.39229579     0.04570
C155        C  0.42624785  0.30973367  0.39232825    -0.11580
C156        C  0.41305964  0.32644756  0.37577297     0.02070
C157        C  0.38293820  0.30899004  0.35910975    -0.10110
C158        C  0.36619320  0.27535946  0.35869027     0.04560
C159        C  0.37952472  0.25865928  0.37536721    -0.09530
H160        H  0.44970994  0.32293602  0.40497744     0.10160
H161        H  0.37227043  0.32160932  0.34655978     0.07680
H162        H  0.36665894  0.23260476  0.37515700     0.07530
O163        O  0.27621469  0.48784791  0.21233629    -0.72990
O164        O  0.27362148  0.04287157  0.28447953    -0.73020
O165        O  0.27732524  0.48827609  0.28429150    -0.73070
O166        O  0.27234875  0.04246966  0.21249307    -0.73120
O167        O  0.21872849  0.01199470  0.21346656    -0.73050
O168        O  0.22369514  0.45784267  0.28529397    -0.73030
O169        O  0.21997893  0.01248074  0.28546087    -0.73010
O170        O  0.22258476  0.45734282  0.21328178    -0.73070
Ni171      Ni  0.27678650  0.01641395  0.24834901     1.25410
Ni172      Ni  0.21931927  0.48385022  0.24939316     1.25360
C173        C  0.25001655  0.46319259  0.20173813     0.89190
C174        C  0.24624884  0.03705684  0.29611005     0.89120
C175        C  0.25144427  0.46383411  0.29589629     0.89150
C176        C  0.24458437  0.03653724  0.20197481     0.89320
O177        O  0.21129232  0.48791165  0.03748055    -0.72990
O178        O  0.27006862  0.04264454  0.46561462    -0.73020
O179        O  0.21078692  0.48852861  0.46563833    -0.73070
O180        O  0.27078205  0.04215164  0.03749190    -0.73120
O181        O  0.29309767  0.01143356  0.03648041    -0.73050
O182        O  0.23308462  0.45778876  0.46459998    -0.73030
O183        O  0.29242417  0.01195141  0.46458412    -0.73010
O184        O  0.23358675  0.45716791  0.03647670    -0.73070
Ni185      Ni  0.23990464  0.01637688  0.00161940     1.25410
Ni186      Ni  0.26388722  0.48350667  0.50053434     1.25360
C187        C  0.21225626  0.46319764  0.04797598     0.89190
C188        C  0.29124691  0.03650650  0.45389797     0.89120
C189        C  0.21172735  0.46412386  0.45392468     0.89150
C190        C  0.29226668  0.03594770  0.04804352     0.89320
O191        O  0.23337807  0.27483563  0.28630605    -0.72990
O192        O  0.29141825  0.27779574  0.21419521    -0.73020
O193        O  0.23334772  0.27508434  0.21427321    -0.73070
O194        O  0.29132769  0.27741628  0.28621359    -0.73120
O195        O  0.26637777  0.22379515  0.28594312    -0.73050
O196        O  0.20853111  0.22147195  0.21399706    -0.73030
O197        O  0.26657772  0.22418904  0.21386241    -0.73010
O198        O  0.20844249  0.22121955  0.28593843    -0.73070
Ni199      Ni  0.26330748  0.27820841  0.25024932     1.25410
Ni200      Ni  0.23656249  0.22075352  0.24991384     1.25360
C201        C  0.21089842  0.24741332  0.29725556     0.89190
C202        C  0.28902635  0.25163441  0.20288337     0.89120
C203        C  0.21087750  0.24771192  0.20310943     0.89150
C204        C  0.28879469  0.25111462  0.29723676     0.89320
C205        C  0.31258623  0.25274579  0.32174014    -0.11830
C206        C  0.33577239  0.25928662  0.34005478    -0.13390
C207        C  0.25401320  0.44210351  0.32018397    -0.11830
C208        C  0.26067880  0.42545957  0.33810061    -0.13390
C209        C  0.18693867  0.24554379  0.32167572    -0.11830
C210        C  0.16368370  0.23892602  0.33989412    -0.13390
C211        C  0.24455638  0.05920347  0.32042088    -0.11830
C212        C  0.23837388  0.07615430  0.33834629    -0.13390
C213        C  0.08571364  0.03473241  0.34347446    -0.11910
C214        C  0.06913953  0.03448491  0.37430475     0.10240
C215        C  0.08640240  0.05184801  0.40452129    -0.11910
C216        C  0.11998388  0.06925009  0.40398915    -0.11910
C217        C  0.13681543  0.06961294  0.37315217     0.10240
C218        C  0.11930920  0.05220642  0.34285381    -0.11910
H219        H  0.07258482  0.52158592  0.31987714     0.14230
H220        H  0.07381551  0.05172304  0.42853466     0.14230
H221        H  0.13277036  0.08197662  0.42790584     0.14230
H222        H  0.13156936  0.05239097  0.31855186     0.14230
C223        C  0.03512068  0.08537420  0.40598127    -0.11910
C224        C  0.03456541  0.06867262  0.37511182     0.10240
C225        C  0.05095841  0.08579772  0.34444191    -0.11910
C226        C  0.06772817  0.11934925  0.34458583    -0.11910
C227        C  0.06842266  0.13629262  0.37548091     0.10240
C228        C  0.05194278  0.11893865  0.40619993    -0.11910
H229        H  0.52266037  0.07236814  0.42989679     0.14230
H230        H  0.05053780  0.07312672  0.32037551     0.14230
H231        H  0.07977366  0.13202621  0.32037017     0.14230
H232        H  0.05241028  0.13130781  0.43052756     0.14230
C233        C  0.46437320  0.41302453  0.40598224    -0.11910
C234        C  0.46451377  0.42963549  0.37522331     0.10240
C235        C  0.44775912  0.41246036  0.34470114    -0.11910
C236        C  0.43107460  0.37892665  0.34486032    -0.11910
C237        C  0.43078192  0.36206601  0.37564876     0.10240
C238        C  0.44758066  0.37947581  0.40624174    -0.11910
H239        H  0.47712584  0.42608940  0.42978014     0.14230
H240        H  0.44787092  0.42508003  0.32072214     0.14230
H241        H  0.41879296  0.36620534  0.32072898     0.14230
H242        H  0.44741187  0.36716700  0.43049589     0.14230
C243        C  0.41322046  0.46525998  0.34372852    -0.11910
C244        C  0.42974340  0.46394354  0.37391299     0.10240
C245        C  0.41227491  0.44568718  0.40356217    -0.11910
C246        C  0.37865674  0.42902254  0.40311726    -0.11910
C247        C  0.36188078  0.43029198  0.37294482     0.10240
C248        C  0.37959714  0.44858157  0.34321094    -0.11910
H249        H  0.42641496  0.97910350  0.32053298     0.14230
H250        H  0.42472491  0.44463668  0.42716235     0.14230
H251        H  0.36584072  0.41565658  0.42669027     0.14230
H252        H  0.36750079  0.44967687  0.31933629     0.14290
C253        C  0.06894791  0.45000517  0.40580807    -0.11910
C254        C  0.06798060  0.43174914  0.37601927     0.10240
C255        C  0.04980063  0.43031008  0.34590139    -0.11910
C256        C  0.03300827  0.44676305  0.34560050    -0.11910
C257        C  0.03414686  0.46491798  0.37534026     0.10240
C258        C  0.05217519  0.46647331  0.40542942    -0.11910
H259        H  0.08225631  0.45118239  0.42963217     0.14230
H260        H  0.04898849  0.41693714  0.32231693     0.14230
H261        H  0.51931576  0.44558059  0.32209931     0.14230
H262        H  0.05304664  0.98027643  0.42866151     0.14230
C263        C  0.16385823  0.42671048  0.41119003    -0.11830
C264        C  0.18732323  0.44287362  0.42934369    -0.13390
C265        C  0.43294531  0.05091316  0.40627332    -0.11910
C266        C  0.43309873  0.06816313  0.37590816     0.10240
C267        C  0.44957501  0.06786862  0.34507346    -0.11910
C268        C  0.46558053  0.05067058  0.34463320    -0.11910
C269        C  0.46524455  0.03350721  0.37494105     0.10240
C270        C  0.44887475  0.03363992  0.40573885    -0.11910
H271        H  0.42085696  0.05110035  0.43056117     0.14230
H272        H  0.44967735  0.08051626  0.32113997     0.14230
H273        H  0.97813351  0.05059343  0.32067650     0.14230
H274        H  0.44873648  0.52062197  0.42937680     0.14230
C275        C  0.33848505  0.07468426  0.41115788    -0.11830
C276        C  0.31521263  0.05819714  0.42933468    -0.13390
C277        C  0.31303167  0.25360677  0.17841976    -0.11830
C278        C  0.33632732  0.26036623  0.16017858    -0.13390
C279        C  0.23557780  0.07540255  0.16013409    -0.11830
C280        C  0.24197965  0.05847943  0.17796561    -0.13390
C281        C  0.18669483  0.24584574  0.17904684    -0.11830
C282        C  0.16313808  0.23891030  0.16121326    -0.13390
C283        C  0.25834245  0.42462928  0.15898488    -0.11830
C284        C  0.25195157  0.44114446  0.17745207    -0.13390
C285        C  0.08553941  0.04027081  0.09334683    -0.11910
C286        C  0.06934231  0.03855271  0.12519176     0.10240
C287        C  0.08688780  0.05651673  0.15519403    -0.11910
C288        C  0.12045613  0.07358136  0.15433977    -0.11910
C289        C  0.13663858  0.07339557  0.12334858     0.10240
C290        C  0.11915756  0.05753411  0.09253307    -0.11910
H291        H  0.07219794  0.52731152  0.06981990     0.14230
H292        H  0.07458881  0.05583808  0.17966956     0.14230
H293        H  0.13382346  0.08628423  0.17801869     0.14230
H294        H  0.13154974  0.05769796  0.06833572     0.14230
C295        C  0.03650696  0.08624277  0.15650839    -0.11910
C296        C  0.03434839  0.06929699  0.12516022     0.10240
C297        C  0.04927686  0.08631109  0.09377641    -0.11910
C298        C  0.06595145  0.11988098  0.09367393    -0.11910
C299        C  0.06818400  0.13676430  0.12504607     0.10240
C300        C  0.05348153  0.11983404  0.15648544    -0.11910
H301        H  0.52516550  0.07339468  0.18090209     0.14230
H302        H  0.04783311  0.07350862  0.06943437     0.14230
H303        H  0.07731786  0.13271258  0.06927192     0.14230
H304        H  0.05501144  0.13264393  0.18085675     0.14230
C305        C  0.43154699  0.38002011  0.15578506    -0.11910
C306        C  0.43209576  0.36312401  0.12535812     0.10240
C307        C  0.44997543  0.38051040  0.09522521    -0.11910
C308        C  0.46706782  0.41406594  0.09545071    -0.11910
C309        C  0.46616793  0.43075755  0.12575059     0.10240
C310        C  0.44821062  0.41359155  0.15599471    -0.11910
H311        H  0.41849233  0.36732639  0.17955618     0.14230
H312        H  0.45036240  0.36818995  0.07123407     0.14230
H313        H  0.98058294  0.42706542  0.07200289     0.14230
H314        H  0.44744440  0.42626404  0.17950856     0.14230
C315        C  0.40994923  0.47898673  0.10344386    -0.11910
C316        C  0.42740594  0.46326864  0.11175805     0.10240
C317        C  0.40710910  0.42926510  0.11172579    -0.11910
C318        C  0.37395064  0.41387826  0.11609278    -0.11910
C319        C  0.35814654  0.43120461  0.11485348     0.10240
C320        C  0.37638640  0.46393774  0.10695614    -0.11910
H321        H  0.42099358  0.00205829  0.09100206     0.14230
H322        H  0.41452497  0.41280702  0.10468636     0.14230
H323        H  0.36059093  0.38794322  0.11882021     0.14230
H324        H  0.36461848  0.47753149  0.10155227     0.14230
C325        C  0.03866694  0.41512970  0.14111608    -0.11910
C326        C  0.07178631  0.43109125  0.13496782     0.10240
C327        C  0.08858211  0.46454864  0.13615885    -0.11910
C328        C  0.07213231  0.48122636  0.13915424    -0.11910
C329        C  0.03786726  0.46576816  0.13873029     0.10240
C330        C  0.02316045  0.43245961  0.14628191    -0.11910
H331        H  0.02453092  0.38923569  0.14348023     0.14230
H332        H  0.11467228  0.47805983  0.13627561     0.14230
H333        H  0.08793584  0.00573736  0.14536370     0.14230
H334        H  0.50051414  0.41898317  0.15905759     0.14230
C335        C  0.18781518  0.44117891  0.07196439    -0.11830
C336        C  0.16444138  0.42446394  0.08995348    -0.13390
C337        C  0.43437007  0.05185666  0.15769730    -0.11910
C338        C  0.43568171  0.07043746  0.12826823     0.10240
C339        C  0.45401269  0.07287471  0.09822868    -0.11910
C340        C  0.47007920  0.05582676  0.09699906    -0.11910
C341        C  0.46738505  0.03570744  0.12564374     0.10240
C342        C  0.45029744  0.03454840  0.15645119    -0.11910
H343        H  0.42043131  0.05019839  0.18112444     0.14230
H344        H  0.45529355  0.08742018  0.07554571     0.14230
H345        H  0.98328501  0.05697133  0.07311496     0.14230
H346        H  0.44877705  0.51977502  0.17893645     0.14230
C347        C  0.34038024  0.07408646  0.09033682    -0.11830
C348        C  0.31694251  0.05753089  0.07225009    -0.13390
C349        C  0.44170626  0.25494942  0.07143738    -0.11830
C350        C  0.42504521  0.26148771  0.08950905    -0.13390
C351        C  0.07560574  0.23807767  0.08867503    -0.11830
C352        C  0.05902498  0.24495929  0.07095889    -0.13390
C353        C  0.07516332  0.23794945  0.41067696    -0.11830
C354        C  0.05852508  0.24458257  0.42863618    -0.13390
C355        C  0.42463130  0.26068648  0.41053002    -0.11830
C356        C  0.44138849  0.25424333  0.42852647    -0.13390
C357        C  0.24015142  0.16480544  0.08715862    -0.11830
C358        C  0.24629211  0.18799819  0.06914873    -0.13390
C359        C  0.23983207  0.16513670  0.40831984    -0.11830
C360        C  0.24656854  0.18840758  0.42654100    -0.13390
C361        C  0.25430389  0.33523826  0.08683066    -0.11830
C362        C  0.24856433  0.31188998  0.06925614    -0.13390
C363        C  0.25084130  0.31247001  0.42622817    -0.11830
C364        C  0.25794591  0.33575252  0.40786674    -0.13390
C365        C  0.44332108  0.18622557  0.18082187    -0.11830
C366        C  0.42654728  0.16283565  0.16290157    -0.13390
C367        C  0.42681546  0.16340627  0.34173495    -0.11830
C368        C  0.44298198  0.18687010  0.32365950    -0.13390
C369        C  0.05997728  0.31370993  0.32399027    -0.11830
C370        C  0.07580346  0.33722594  0.34216334    -0.13390
C371        C  0.07936563  0.33588743  0.16312041    -0.11830
C372        C  0.06210786  0.31258217  0.18090052    -0.13390
O373        O  0.45937057  0.23247214  0.78753935    -0.72990
O374        O  0.01539043  0.29075151  0.71570535    -0.73020
O375        O  0.45998388  0.23233480  0.71564276    -0.73070
O376        O  0.01443561  0.29110797  0.78761264    -0.73120
O377        O  0.04425582  0.26778757  0.78862957    -0.73050
O378        O  0.48942181  0.20859921  0.71667603    -0.73030
O379        O  0.04479296  0.26697995  0.71672181    -0.73010
O380        O  0.48920298  0.20916362  0.78853156    -0.73070
Ni381      Ni  0.48626601  0.26256018  0.75157697     1.25410
Ni382      Ni  0.01794822  0.23725197  0.75266397     1.25360
C383        C  0.46491663  0.21084402  0.79918818     0.89190
C384        C  0.03959417  0.28878878  0.70511303     0.89120
C385        C  0.46537666  0.21037266  0.70506877     0.89150
C386        C  0.03851473  0.28953643  0.79933276     0.89320
O387        O  0.22067042  0.20842696  0.53372539    -0.72990
O388        O  0.22196181  0.26587262  0.96170392    -0.73020
O389        O  0.22105797  0.20880345  0.96178876    -0.73070
O390        O  0.22108062  0.26531006  0.53379681    -0.73120
O391        O  0.27483018  0.29173775  0.53441540    -0.73050
O392        O  0.27480147  0.23486782  0.96240428    -0.73030
O393        O  0.27570311  0.29193543  0.96240072    -0.73010
O394        O  0.27442580  0.23485386  0.53441697    -0.73070
Ni395      Ni  0.21927051  0.23613027  0.49774885     1.25410
Ni396      Ni  0.27686239  0.26433280  0.49844933     1.25360
C397        C  0.24727582  0.21172347  0.54507943     0.89190
C398        C  0.24925300  0.28878349  0.95086302     0.89120
C399        C  0.24770857  0.21201075  0.95097085     0.89150
C400        C  0.24802854  0.28832828  0.54517418     0.89320
O401        O  0.48816697  0.27860984  0.53591003    -0.72990
O402        O  0.04260172  0.27448266  0.96386712    -0.73020
O403        O  0.48794616  0.27826961  0.96389050    -0.73070
O404        O  0.04284357  0.27474891  0.53585861    -0.73120
O405        O  0.01224815  0.22119159  0.53607564    -0.73050
O406        O  0.45744375  0.22470360  0.96411455    -0.73030
O407        O  0.01208452  0.22092214  0.96413699    -0.73010
O408        O  0.45761637  0.22505555  0.53613476    -0.73070
Ni409      Ni  0.01644586  0.27845497  0.99988160     1.25410
Ni410      Ni  0.48378709  0.22105581  0.00013351     1.25360
C411        C  0.46359580  0.25264810  0.54712883     0.89190
C412        C  0.03663478  0.24689034  0.95290178     0.89120
C413        C  0.46336887  0.25219162  0.95286977     0.89150
C414        C  0.03692965  0.24721691  0.54697905     0.89320
C415        C  0.37050268  0.08917828  0.60938098     0.04570
C416        C  0.38272837  0.11902546  0.62669563    -0.11580
C417        C  0.41239837  0.13245547  0.64476820     0.02070
C418        C  0.42932570  0.11609943  0.64574873    -0.10110
C419        C  0.41723434  0.08672742  0.62831182     0.04560
C420        C  0.38798907  0.07333629  0.60999340    -0.09530
H421        H  0.36944337  0.13157241  0.62607637     0.10160
H422        H  0.45219153  0.12640705  0.65972502     0.07680
H423        H  0.37883770  0.05050178  0.59631103     0.07530
C424        C  0.13464145  0.40949329  0.60945974     0.04570
C425        C  0.12247524  0.37944566  0.62609321    -0.11580
C426        C  0.09367542  0.36652787  0.64553648     0.02070
C427        C  0.07775040  0.38370175  0.64885449    -0.10110
C428        C  0.08919403  0.41325657  0.63154904     0.04560
C429        C  0.11770302  0.42587228  0.61158415    -0.09530
H430        H  0.13524273  0.36643672  0.62406675     0.10160
H431        H  0.05654247  0.37390398  0.66561496     0.07680
H432        H  0.12689004  0.44852856  0.59759164     0.07530
C433        C  0.48274823  0.01605072  0.62307056     0.03730
C434        C  0.46490890  0.48174471  0.61941291     0.03730
C435        C  0.48338230  0.46586145  0.62568254     0.03730
C436        C  0.01823949  0.48323249  0.63143081     0.03730
C437        C  0.03406975  0.01744583  0.62751270     0.03730
C438        C  0.01654973  0.03330304  0.62522748     0.03730
C439        C  0.27307926  0.40996991  0.63894255     0.04570
C440        C  0.25487189  0.37930631  0.62314765    -0.11580
C441        C  0.27074826  0.36636353  0.60396546     0.02070
C442        C  0.30418820  0.38399739  0.60065198    -0.10110
C443        C  0.32254183  0.41410294  0.61702046     0.04560
C444        C  0.30675792  0.42707370  0.63595283    -0.09530
H445        H  0.22888150  0.36583619  0.62568576     0.10160
H446        H  0.31597658  0.37407949  0.58495952     0.07680
H447        H  0.32072524  0.45030253  0.64886375     0.07530
C448        C  0.09014943  0.22240992  0.60712847     0.04570
C449        C  0.07356688  0.18874502  0.60688538    -0.11580
C450        C  0.08595383  0.17209025  0.62498866     0.02070
C451        C  0.11532808  0.18916381  0.64301917    -0.10110
C452        C  0.13263625  0.22283335  0.64270911     0.04560
C453        C  0.11997728  0.23967964  0.62490151    -0.09530
H454        H  0.05071235  0.17539725  0.59298399     0.10160
H455        H  0.12490699  0.17613611  0.65695142     0.07680
H456        H  0.13308595  0.26573989  0.62488512     0.07530
C457        C  0.22102824  0.09103580  0.64139301     0.04570
C458        C  0.18735940  0.07578128  0.64147063    -0.11580
C459        C  0.17182954  0.08941414  0.62337081     0.02070
C460        C  0.18985538  0.11848412  0.60541342    -0.10110
C461        C  0.22346686  0.13446863  0.60573032     0.04560
C462        C  0.23934922  0.12073065  0.62359546    -0.09530
H463        H  0.17313235  0.05308855  0.65534908     0.10160
H464        H  0.17757612  0.12890729  0.59151750     0.07680
H465        H  0.26541204  0.13290258  0.62367205     0.07530
C466        C  0.41028272  0.27695292  0.60800655     0.04570
C467        C  0.42708381  0.31059055  0.60843427    -0.11580
C468        C  0.41406458  0.32744723  0.62503845     0.02070
C469        C  0.38380291  0.31005548  0.64142794    -0.10110
C470        C  0.36682518  0.27640136  0.64161652     0.04560
C471        C  0.37999784  0.25961568  0.62475839    -0.09530
H472        H  0.45064991  0.32366033  0.59606317     0.10160
H473        H  0.37318581  0.32271808  0.65395111     0.07680
H474        H  0.36694271  0.23355925  0.62469933     0.07530
C475        C  0.36886417  0.08936884  0.89292337     0.04570
C476        C  0.38214700  0.11959823  0.87649352    -0.11580
C477        C  0.41236457  0.13297723  0.85990858     0.02070
C478        C  0.42903630  0.11627955  0.85995358    -0.10110
C479        C  0.41574210  0.08604026  0.87624194     0.04560
C480        C  0.38555629  0.07275396  0.89262790    -0.09530
H481        H  0.36918313  0.13247824  0.87659282     0.10160
H482        H  0.45253342  0.12701685  0.84743020     0.07680
H483        H  0.37475362  0.04918515  0.90493068     0.07530
C484        C  0.13339363  0.41181290  0.89292499     0.04570
C485        C  0.12029722  0.38149706  0.87671581    -0.11580
C486        C  0.08995256  0.36768110  0.86030505     0.02070
C487        C  0.07288366  0.38397702  0.86038882    -0.10110
C488        C  0.08596086  0.41438317  0.87631233     0.04560
C489        C  0.11638530  0.42815000  0.89244582    -0.09530
H490        H  0.13351180  0.36886762  0.87685916     0.10160
H491        H  0.04922243  0.37274831  0.84815562     0.07680
H492        H  0.12710708  0.45181872  0.90448583     0.07530
C493        C  0.48270954  0.01583018  0.87467647     0.03730
C494        C  0.46549100  0.48191706  0.87452094     0.03730
C495        C  0.48240462  0.46521055  0.87492188     0.03730
C496        C  0.01639968  0.48242442  0.87498717     0.03730
C497        C  0.03350221  0.01633741  0.87478314     0.03730
C498        C  0.01664429  0.03304169  0.87486651     0.03730
C499        C  0.22298015  0.09111527  0.85643026     0.04570
C500        C  0.24040472  0.12134013  0.87320525    -0.11580
C501        C  0.22365688  0.13467231  0.88976817     0.02070
C502        C  0.18993854  0.11785283  0.88934474    -0.10110
C503        C  0.17250336  0.08767369  0.87282280     0.04560
C504        C  0.18931215  0.07454256  0.85642455    -0.09530
H505        H  0.26649651  0.13421761  0.87340709     0.10160
H506        H  0.17724755  0.12845907  0.90183646     0.07680
H507        H  0.17615618  0.05102719  0.84396619     0.07530
C508        C  0.08992943  0.22241911  0.89235855     0.04570
C509        C  0.12009015  0.23974370  0.87535012    -0.11580
C510        C  0.13324183  0.22293940  0.85850983     0.02070
C511        C  0.11632509  0.18929516  0.85883053    -0.10110
C512        C  0.08627012  0.17193622  0.87560966     0.04560
C513        C  0.07328887  0.18876489  0.89233708    -0.09530
H514        H  0.13306742  0.26580034  0.87520730     0.10160
H515        H  0.12682221  0.17657964  0.84615159     0.07680
H516        H  0.04988735  0.17563381  0.90507551     0.07530
C517        C  0.27588424  0.41025175  0.85626031     0.04570
C518        C  0.25813267  0.37999399  0.87286375    -0.11580
C519        C  0.27450453  0.36619147  0.88929648     0.02070
C520        C  0.30821144  0.38252478  0.88883026    -0.10110
C521        C  0.32608755  0.41281620  0.87263476     0.04560
C522        C  0.30958529  0.42645912  0.85644495    -0.09530
H523        H  0.23204856  0.36743290  0.87302654     0.10160
H524        H  0.32052488  0.37140844  0.90106765     0.07680
H525        H  0.32297136  0.45003412  0.84421919     0.07530
C526        C  0.40972536  0.27609273  0.89229578     0.04570
C527        C  0.42624786  0.30973369  0.89232823    -0.11580
C528        C  0.41305964  0.32644757  0.87577295     0.02070
C529        C  0.38293821  0.30899004  0.85910972    -0.10110
C530        C  0.36619321  0.27535946  0.85869026     0.04560
C531        C  0.37952474  0.25865928  0.87536720    -0.09530
H532        H  0.44970995  0.32293604  0.90497743     0.10160
H533        H  0.37227044  0.32160932  0.84655975     0.07680
H534        H  0.36665896  0.23260477  0.87515700     0.07530
O535        O  0.27621474  0.48784795  0.71233639    -0.72990
O536        O  0.27362138  0.04287145  0.78447932    -0.73020
O537        O  0.27732526  0.48827614  0.78429160    -0.73070
O538        O  0.27234866  0.04246940  0.71249285    -0.73120
O539        O  0.21872840  0.01199445  0.71346635    -0.73050
O540        O  0.22369516  0.45784273  0.78529406    -0.73030
O541        O  0.21997883  0.01248063  0.78546066    -0.73010
O542        O  0.22258481  0.45734286  0.71328186    -0.73070
Ni543      Ni  0.27678641  0.01641376  0.74834888     1.25410
Ni544      Ni  0.21931930  0.48385027  0.74939322     1.25360
C545        C  0.25001660  0.46319262  0.70173823     0.89190
C546        C  0.24624874  0.03705673  0.79610983     0.89120
C547        C  0.25144429  0.46383416  0.79589638     0.89150
C548        C  0.24458428  0.03653699  0.70197459     0.89320
O549        O  0.21129240  0.48791170  0.53748051    -0.72990
O550        O  0.27006854  0.04264451  0.96561459    -0.73020
O551        O  0.21078689  0.48852858  0.96563837    -0.73070
O552        O  0.27078225  0.04215166  0.53749193    -0.73120
O553        O  0.29309780  0.01143352  0.53648035    -0.73050
O554        O  0.23308459  0.45778872  0.96460004    -0.73030
O555        O  0.29242414  0.01195142  0.96458419    -0.73010
O556        O  0.23358684  0.45716798  0.53647664    -0.73070
Ni557      Ni  0.23990476  0.01637693  0.50161947     1.25410
Ni558      Ni  0.26388717  0.48350661  0.00053442     1.25360
C559        C  0.21225637  0.46319772  0.54797595     0.89190
C560        C  0.29124687  0.03650649  0.95389799     0.89120
C561        C  0.21172733  0.46412383  0.95392472     0.89150
C562        C  0.29226688  0.03594769  0.54804348     0.89320
O563        O  0.23337806  0.27483561  0.78630604    -0.72990
O564        O  0.29141824  0.27779574  0.71419520    -0.73020
O565        O  0.23334770  0.27508432  0.71427320    -0.73070
O566        O  0.29132769  0.27741627  0.78621358    -0.73120
O567        O  0.26637778  0.22379515  0.78594310    -0.73050
O568        O  0.20853110  0.22147193  0.71399704    -0.73030
O569        O  0.26657772  0.22418904  0.71386240    -0.73010
O570        O  0.20844249  0.22121953  0.78593841    -0.73070
Ni571      Ni  0.26330747  0.27820840  0.75024931     1.25410
Ni572      Ni  0.23656249  0.22075351  0.74991382     1.25360
C573        C  0.21089841  0.24741330  0.79725555     0.89190
C574        C  0.28902635  0.25163442  0.70288336     0.89120
C575        C  0.21087749  0.24771189  0.70310942     0.89150
C576        C  0.28879469  0.25111462  0.79723675     0.89320
C577        C  0.31258624  0.25274579  0.82174012    -0.11830
C578        C  0.33577240  0.25928662  0.84005477    -0.13390
C579        C  0.25401321  0.44210355  0.82018405    -0.11830
C580        C  0.26067882  0.42545961  0.83810067    -0.13390
C581        C  0.18693866  0.24554376  0.82167570    -0.11830
C582        C  0.16368369  0.23892599  0.83989411    -0.13390
C583        C  0.24455629  0.05920339  0.82042065    -0.11830
C584        C  0.23837382  0.07615423  0.83834608    -0.13390
C585        C  0.08571360  0.03473238  0.84347442    -0.11910
C586        C  0.06913951  0.03448489  0.87430473     0.10240
C587        C  0.08640240  0.05184801  0.90452125    -0.11910
C588        C  0.11998388  0.06925009  0.90398909    -0.11910
C589        C  0.13681541  0.06961292  0.87315210     0.10240
C590        C  0.11930917  0.05220640  0.84285375    -0.11910
H591        H  0.07258482  0.52158594  0.81987714     0.14230
H592        H  0.07381552  0.05172305  0.92853463     0.14230
H593        H  0.13277037  0.08197662  0.92790577     0.14230
H594        H  0.13156931  0.05239093  0.81855179     0.14230
C595        C  0.03512068  0.08537418  0.90598128    -0.11910
C596        C  0.03456540  0.06867260  0.87511183     0.10240
C597        C  0.05095838  0.08579770  0.84444191    -0.11910
C598        C  0.06772815  0.11934923  0.84458582    -0.11910
C599        C  0.06842265  0.13629260  0.87548091     0.10240
C600        C  0.05194278  0.11893864  0.90619993    -0.11910
H601        H  0.52266039  0.07236813  0.92989680     0.14230
H602        H  0.05053777  0.07312670  0.82037550     0.14230
H603        H  0.07977362  0.13202619  0.82037016     0.14230
H604        H  0.05241029  0.13130780  0.93052757     0.14230
C605        C  0.46437317  0.41302453  0.90598223    -0.11910
C606        C  0.46451376  0.42963550  0.87522330     0.10240
C607        C  0.44775914  0.41246037  0.84470112    -0.11910
C608        C  0.43107462  0.37892666  0.84486029    -0.11910
C609        C  0.43078192  0.36206602  0.87564874     0.10240
C610        C  0.44758064  0.37947581  0.90624173    -0.11910
H611        H  0.47712580  0.42608939  0.92978014     0.14230
H612        H  0.44787095  0.42508005  0.82072212     0.14230
H613        H  0.41879299  0.36620535  0.82072894     0.14230
H614        H  0.44741184  0.36716701  0.93049588     0.14230
C615        C  0.41322046  0.46525997  0.84372851    -0.11910
C616        C  0.42974341  0.46394355  0.87391299     0.10240
C617        C  0.41227492  0.44568721  0.90356219    -0.11910
C618        C  0.37865675  0.42902258  0.90311728    -0.11910
C619        C  0.36188079  0.43029200  0.87294483     0.10240
C620        C  0.37959714  0.44858156  0.84321094    -0.11910
H621        H  0.42641496  0.97910357  0.82053300     0.14230
H622        H  0.42472492  0.44463674  0.92716237     0.14230
H623        H  0.36584073  0.41565663  0.92669029     0.14230
H624        H  0.36750079  0.44967685  0.81933628     0.14290
C625        C  0.06894794  0.45000520  0.90580806    -0.11910
C626        C  0.06798061  0.43174914  0.87601927     0.10240
C627        C  0.04980061  0.43031006  0.84590141    -0.11910
C628        C  0.03300825  0.44676302  0.84560052    -0.11910
C629        C  0.03414686  0.46491798  0.87534027     0.10240
C630        C  0.05217522  0.46647333  0.90542941    -0.11910
H631        H  0.08225636  0.45118244  0.92963215     0.14230
H632        H  0.04898845  0.41693710  0.82231696     0.14230
H633        H  0.51931584  0.44558067  0.82209927     0.14230
H634        H  0.05304673  0.98027650  0.92866147     0.14230
C635        C  0.16385824  0.42671047  0.91119004    -0.11830
C636        C  0.18732323  0.44287360  0.92934371    -0.13390
C637        C  0.43294530  0.05091315  0.90627334    -0.11910
C638        C  0.43309873  0.06816314  0.87590820     0.10240
C639        C  0.44957502  0.06786864  0.84507350    -0.11910
C640        C  0.46558054  0.05067059  0.84463322    -0.11910
C641        C  0.46524454  0.03350720  0.87494106     0.10240
C642        C  0.44887474  0.03363990  0.90573886    -0.11910
H643        H  0.42085695  0.05110033  0.93056119     0.14230
H644        H  0.44967736  0.08051629  0.82114002     0.14230
H645        H  0.97813351  0.05059342  0.82067652     0.14230
H646        H  0.44873649  0.52062198  0.92937680     0.14230
C647        C  0.33848503  0.07468425  0.91115793    -0.11830
C648        C  0.31521260  0.05819714  0.92933472    -0.13390
C649        C  0.31303168  0.25360678  0.67841974    -0.11830
C650        C  0.33632733  0.26036625  0.66017856    -0.13390
C651        C  0.23557775  0.07540237  0.66013395    -0.11830
C652        C  0.24197957  0.05847921  0.67796542    -0.13390
C653        C  0.18669481  0.24584571  0.67904683    -0.11830
C654        C  0.16313806  0.23891026  0.66121325    -0.13390
C655        C  0.25834253  0.42462930  0.65898501    -0.11830
C656        C  0.25195164  0.44114449  0.67745219    -0.13390
C657        C  0.08553937  0.04027048  0.59334687    -0.11910
C658        C  0.06934228  0.03855259  0.62519171     0.10240
C659        C  0.08688777  0.05651682  0.65519389    -0.11910
C660        C  0.12045610  0.07358144  0.65433963    -0.11910
C661        C  0.13663855  0.07339547  0.62334852     0.10240
C662        C  0.11915753  0.05753379  0.59253310    -0.11910
H663        H  0.07219785  0.52730997  0.56982028     0.14230
H664        H  0.07458879  0.05583831  0.67966937     0.14230
H665        H  0.13382344  0.08628446  0.67801849     0.14230
H666        H  0.13154971  0.05769751  0.56833581     0.14230
C667        C  0.03650690  0.08624273  0.65650836    -0.11910
C668        C  0.03434838  0.06929695  0.62516021     0.10240
C669        C  0.04927689  0.08631104  0.59377641    -0.11910
C670        C  0.06595147  0.11988093  0.59367392    -0.11910
C671        C  0.06818398  0.13676425  0.62504605     0.10240
C672        C  0.05348147  0.11983400  0.65648541    -0.11910
H673        H  0.52516682  0.07339514  0.68090206     0.14230
H674        H  0.04783316  0.07350857  0.56943438     0.14230
H675        H  0.07731790  0.13271253  0.56927192     0.14230
H676        H  0.05501136  0.13264389  0.68085671     0.14230
C677        C  0.43154696  0.38002014  0.65578501    -0.11910
C678        C  0.43209583  0.36312403  0.62535813     0.10240
C679        C  0.44997564  0.38051043  0.59522529    -0.11910
C680        C  0.46706806  0.41406597  0.59545081    -0.11910
C681        C  0.46616803  0.43075758  0.62575060     0.10240
C682        C  0.44821059  0.41359157  0.65599465    -0.11910
H683        H  0.41849221  0.36732643  0.67955609     0.14230
H684        H  0.45036269  0.36818999  0.57123418     0.14230
H685        H  0.98058224  0.42706535  0.57200263     0.14230
H686        H  0.44744426  0.42626407  0.67950845     0.14230
C687        C  0.40994920  0.47898671  0.60344405    -0.11910
C688        C  0.42740598  0.46326865  0.61175803     0.10240
C689        C  0.40710920  0.42926510  0.61172555    -0.11910
C690        C  0.37395073  0.41387819  0.61609261    -0.11910
C691        C  0.35814658  0.43120450  0.61485357     0.10240
C692        C  0.37638639  0.46393766  0.60695639    -0.11910
H693        H  0.42099033  0.00205987  0.59101070     0.14230
H694        H  0.41452517  0.41280713  0.60468595     0.14230
H695        H  0.36059107  0.38794314  0.61881990     0.14230
H696        H  0.36461842  0.47753141  0.60155267     0.14230
C697        C  0.03866708  0.41512956  0.64111480    -0.11910
C698        C  0.07178662  0.43109152  0.63496786     0.10240
C699        C  0.08858220  0.46454889  0.63616014    -0.11910
C700        C  0.07213205  0.48122629  0.63915584    -0.11910
C701        C  0.03786699  0.46576785  0.63873045     0.10240
C702        C  0.02316021  0.43245904  0.64628066    -0.11910
H703        H  0.02453120  0.38923546  0.64347796     0.14230
H704        H  0.11467236  0.47806019  0.63627782     0.14230
H705        H  0.08793557  0.00573728  0.64536473     0.14230
H706        H  0.50051432  0.41898369  0.65905847     0.14230
C707        C  0.18781538  0.44117905  0.57196445    -0.11830
C708        C  0.16444165  0.42446416  0.58995367    -0.13390
C709        C  0.43437287  0.05185961  0.65769749    -0.11910
C710        C  0.43568299  0.07043880  0.62826748     0.10240
C711        C  0.45401277  0.07287476  0.59822725    -0.11910
C712        C  0.47007932  0.05582683  0.59699783    -0.11910
C713        C  0.46738625  0.03570875  0.62564338     0.10240
C714        C  0.45030023  0.03455135  0.65645160    -0.11910
H715        H  0.42043514  0.05020243  0.68112517     0.14230
H716        H  0.45529260  0.08741913  0.57554363     0.14230
H717        H  0.98328502  0.05697133  0.57311496     0.14230
H718        H  0.44877716  0.51977516  0.67893649     0.14230
C719        C  0.34038064  0.07408654  0.59033654    -0.11830
C720        C  0.31694281  0.05753088  0.57224996    -0.13390
C721        C  0.44170627  0.25494943  0.57143738    -0.11830
C722        C  0.42504522  0.26148770  0.58950907    -0.13390
C723        C  0.07560572  0.23807764  0.58867502    -0.11830
C724        C  0.05902497  0.24495928  0.57095888    -0.13390
C725        C  0.07516332  0.23794944  0.91067696    -0.11830
C726        C  0.05852509  0.24458256  0.92863618    -0.13390
C727        C  0.42463132  0.26068651  0.91053003    -0.11830
C728        C  0.44138852  0.25424338  0.92852648    -0.13390
C729        C  0.24015139  0.16480539  0.58715864    -0.11830
C730        C  0.24629208  0.18799816  0.56914877    -0.13390
C731        C  0.23983208  0.16513665  0.90831977    -0.11830
C732        C  0.24656853  0.18840753  0.92654094    -0.13390
C733        C  0.25430384  0.33523822  0.58683077    -0.11830
C734        C  0.24856429  0.31188996  0.56925624    -0.13390
C735        C  0.25084131  0.31247000  0.92622811    -0.11830
C736        C  0.25794592  0.33575252  0.90786671    -0.13390
C737        C  0.44332093  0.18622577  0.68082196    -0.11830
C738        C  0.42654716  0.16283593  0.66290155    -0.13390
C739        C  0.42681543  0.16340627  0.84173500    -0.11830
C740        C  0.44298192  0.18687013  0.82365957    -0.13390
C741        C  0.05997730  0.31370996  0.82399021    -0.11830
C742        C  0.07580348  0.33722596  0.84216330    -0.13390
C743        C  0.07936571  0.33588763  0.66312039    -0.11830
C744        C  0.06210789  0.31258232  0.68090044    -0.13390
O745        O  0.45937200  0.73247677  0.28753883    -0.72990
O746        O  0.01539043  0.79076782  0.21570648    -0.73020
O747        O  0.45998208  0.73234835  0.21564212    -0.73070
O748        O  0.01443772  0.79111351  0.28761507    -0.73120
O749        O  0.04425788  0.76779292  0.28862158    -0.73050
O750        O  0.48941958  0.70861221  0.21666467    -0.73030
O751        O  0.04479300  0.76699661  0.21671192    -0.73010
O752        O  0.48920388  0.70916781  0.28852085    -0.73070
Ni753      Ni  0.48626651  0.76256991  0.25157772     1.25410
Ni754      Ni  0.01794856  0.73726191  0.25265328     1.25360
C755        C  0.46491756  0.71084658  0.29918240     0.89190
C756        C  0.03959534  0.78880867  0.20510965     0.89120
C757        C  0.46537290  0.71038613  0.20506373     0.89150
C758        C  0.03851712  0.78954040  0.29933085     0.89320
O759        O  0.22068590  0.70844196  0.03373893    -0.72990
O760        O  0.22196830  0.76588033  0.46171365    -0.73020
O761        O  0.22105983  0.70880813  0.46180139    -0.73070
O762        O  0.22110328  0.76533116  0.03380783    -0.73120
O763        O  0.27485254  0.79175378  0.03441335    -0.73050
O764        O  0.27480317  0.73486977  0.46240461    -0.73030
O765        O  0.27570959  0.79194005  0.46239833    -0.73010
O766        O  0.27444125  0.73486494  0.03441724    -0.73070
Ni767      Ni  0.21928204  0.73614254  0.99776149     1.25410
Ni768      Ni  0.27687366  0.76434092  0.99844814     1.25360
C769        C  0.24729254  0.71173647  0.04508548     0.89190
C770        C  0.24925814  0.78878854  0.45086604     0.89120
C771        C  0.24770776  0.71201209  0.45097745     0.89150
C772        C  0.24805483  0.78835106  0.04517676     0.89320
O773        O  0.48816560  0.77861382  0.03590491    -0.72990
O774        O  0.04260281  0.77448693  0.46386491    -0.73020
O775        O  0.48794478  0.77826881  0.46388618    -0.73070
O776        O  0.04284581  0.77476025  0.03585578    -0.73120
O777        O  0.01225569  0.72120243  0.03607830    -0.73050
O778        O  0.45744549  0.72470250  0.46411531    -0.73030
O779        O  0.01208898  0.72092610  0.46413969    -0.73010
O780        O  0.45761960  0.72505910  0.03613492    -0.73070
Ni781      Ni  0.01644586  0.77845960  0.49987779     1.25410
Ni782      Ni  0.48379146  0.72105996  0.50013533     1.25360
C783        C  0.46359588  0.75265156  0.04712518     0.89190
C784        C  0.03663761  0.74689441  0.45290231     0.89120
C785        C  0.46336840  0.75218917  0.45286794     0.89150
C786        C  0.03693564  0.74723054  0.04697918     0.89320
C787        C  0.37050754  0.58918840  0.10937437     0.04570
C788        C  0.38272268  0.61903173  0.12669533    -0.11580
C789        C  0.41239493  0.63247089  0.14476476     0.02070
C790        C  0.42933424  0.61612732  0.14573829    -0.10110
C791        C  0.41725630  0.58676149  0.12829253     0.04560
C792        C  0.38800891  0.57336112  0.10997549    -0.09530
H793        H  0.36942767  0.63156862  0.12608369     0.10160
H794        H  0.45220072  0.62644132  0.15971439     0.07680
H795        H  0.37886589  0.55052953  0.09628937     0.07530
C796        C  0.13473508  0.90954312  0.10951767     0.04570
C797        C  0.12253196  0.87947641  0.12612328    -0.11580
C798        C  0.09373381  0.86657691  0.14556781     0.02070
C799        C  0.07784187  0.88378109  0.14889030    -0.10110
C800        C  0.08931875  0.91334664  0.13159370     0.04560
C801        C  0.11783934  0.92596413  0.11166748    -0.09530
H802        H  0.13527029  0.86644004  0.12407433     0.10160
H803        H  0.05662138  0.87399577  0.16563273     0.07680
H804        H  0.12705116  0.94864256  0.09771287     0.07530
C805        C  0.48277139  0.51609348  0.12305467     0.03730
C806        C  0.46488732  0.98170208  0.11944306     0.03730
C807        C  0.48335925  0.96582233  0.12570976     0.03730
C808        C  0.01821644  0.98318181  0.13144651     0.03730
C809        C  0.03408818  0.51749451  0.12750319     0.03730
C810        C  0.01656907  0.53334613  0.12521541     0.03730
C811        C  0.27306131  0.91003281  0.13885947     0.04570
C812        C  0.25487153  0.87935248  0.12309391    -0.11580
C813        C  0.27076198  0.86643039  0.10390048     0.02070
C814        C  0.30419829  0.88409979  0.10055893    -0.10110
C815        C  0.32253066  0.91422106  0.11690232     0.04560
C816        C  0.30673694  0.92717819  0.13582897    -0.09530
H817        H  0.22888460  0.86585182  0.12566884     0.10160
H818        H  0.31601091  0.87418968  0.08489402     0.07680
H819        H  0.32069706  0.95041559  0.14872477     0.07530
C820        C  0.09016718  0.72244221  0.10712959     0.04570
C821        C  0.07358563  0.68877811  0.10688577    -0.11580
C822        C  0.08597249  0.67212452  0.12499011     0.02070
C823        C  0.11534539  0.68919687  0.14302159    -0.10110
C824        C  0.13265333  0.72286564  0.14271120     0.04560
C825        C  0.11999483  0.73971237  0.12490327    -0.09530
H826        H  0.05073139  0.67542987  0.09298370     0.10160
H827        H  0.12492391  0.67616875  0.15695388     0.07680
H828        H  0.13310331  0.76577254  0.12488713     0.07530
C829        C  0.22103301  0.59104262  0.14139577     0.04570
C830        C  0.18736467  0.57580096  0.14148277    -0.11580
C831        C  0.17184090  0.58944138  0.12338344     0.02070
C832        C  0.18987310  0.61850540  0.10541746    -0.10110
C833        C  0.22348361  0.63447989  0.10573006     0.04560
C834        C  0.23935966  0.62073436  0.12359344    -0.09530
H835        H  0.17313331  0.55311123  0.15536530     0.10160
H836        H  0.17759930  0.62893470  0.09152217     0.07680
H837        H  0.26542202  0.63289824  0.12366515     0.07530
C838        C  0.41027699  0.77694759  0.10800615     0.04570
C839        C  0.42707371  0.81058505  0.10843667    -0.11580
C840        C  0.41405976  0.82743320  0.12506896     0.02070
C841        C  0.38380922  0.81004133  0.14147586    -0.10110
C842        C  0.36682762  0.77638785  0.14164390     0.04560
C843        C  0.37999568  0.75960592  0.12476601    -0.09530
H844        H  0.45063157  0.82366399  0.09604680     0.10160
H845        H  0.37320468  0.82270619  0.15402345     0.07680
H846        H  0.36693982  0.73354953  0.12469760     0.07530
C847        C  0.36886314  0.58936731  0.39292882     0.04570
C848        C  0.38214409  0.61959680  0.37649661    -0.11580
C849        C  0.41236128  0.63297667  0.35990758     0.02070
C850        C  0.42903358  0.61627953  0.35995230    -0.10110
C851        C  0.41574139  0.58604106  0.37624214     0.04560
C852        C  0.38555667  0.57275409  0.39263042    -0.09530
H853        H  0.36917951  0.63247601  0.37659744     0.10160
H854        H  0.45253004  0.62701677  0.34742733     0.07680
H855        H  0.37475597  0.54918563  0.40493379     0.07530
C856        C  0.13339700  0.91181242  0.39292539     0.04570
C857        C  0.12030005  0.88149677  0.37671601    -0.11580
C858        C  0.08995520  0.86768103  0.36030629     0.02070
C859        C  0.07288639  0.88397702  0.36039078    -0.10110
C860        C  0.08596396  0.91438329  0.37631418     0.04560
C861        C  0.11638874  0.92814984  0.39244737    -0.09530
H862        H  0.13351458  0.86886726  0.37685826     0.10160
H863        H  0.04922498  0.87274830  0.34815800     0.07680
H864        H  0.12711089  0.95181850  0.40448755     0.07530
C865        C  0.48270963  0.51583225  0.37467616     0.03730
C866        C  0.46549107  0.98191498  0.37452053     0.03730
C867        C  0.48240482  0.96520847  0.37492202     0.03730
C868        C  0.01640008  0.98242256  0.37498820     0.03730
C869        C  0.03350200  0.51633920  0.37478208     0.03730
C870        C  0.01664438  0.53304373  0.37486568     0.03730
C871        C  0.22297903  0.59111510  0.35642713     0.04570
C872        C  0.24040398  0.62133975  0.37320450    -0.11580
C873        C  0.22365598  0.63467148  0.38977009     0.02070
C874        C  0.18993775  0.61785172  0.38934610    -0.10110
C875        C  0.17250268  0.58767336  0.37282269     0.04560
C876        C  0.18931113  0.57454275  0.35642270    -0.09530
H877        H  0.26649572  0.63421727  0.37340597     0.10160
H878        H  0.17724650  0.62845727  0.40183880     0.07680
H879        H  0.17615472  0.55102782  0.34396336     0.07530
C880        C  0.08993058  0.72242134  0.39235971     0.04570
C881        C  0.12009132  0.73974620  0.37535194    -0.11580
C882        C  0.13324322  0.72294245  0.35851144     0.02070
C883        C  0.11632661  0.68929809  0.35883111    -0.10110
C884        C  0.08627143  0.67193866  0.37560993     0.04560
C885        C  0.07328997  0.68876709  0.39233761    -0.09530
H886        H  0.13306857  0.76580286  0.37520983     0.10160
H887        H  0.12682402  0.67658298  0.34615184     0.07680
H888        H  0.04988834  0.67563589  0.40507578     0.07530
C889        C  0.27588382  0.91025232  0.35625939     0.04570
C890        C  0.25813258  0.87999492  0.37286359    -0.11580
C891        C  0.27450468  0.86619269  0.38929623     0.02070
C892        C  0.30821150  0.88252588  0.38882936    -0.10110
C893        C  0.32608750  0.91281712  0.37263353     0.04560
C894        C  0.30958501  0.92645981  0.35644345    -0.09530
H895        H  0.23204846  0.86743386  0.37302703     0.10160
H896        H  0.32052499  0.87140957  0.40106670     0.07680
H897        H  0.32297093  0.95003457  0.34421718     0.07530
C898        C  0.40972489  0.77608990  0.39229611     0.04570
C899        C  0.42624758  0.80973094  0.39232844    -0.11580
C900        C  0.41305915  0.82644486  0.37577346     0.02070
C901        C  0.38293729  0.80898702  0.35911089    -0.10110
C902        C  0.36619217  0.77535629  0.35869234     0.04560
C903        C  0.37952403  0.75865645  0.37536869    -0.09530
H904        H  0.44970987  0.82293324  0.40497717     0.10160
H905        H  0.37226920  0.82160606  0.34656106     0.07680
H906        H  0.36665816  0.73260192  0.37515899     0.07530
O907        O  0.27620162  0.98784779  0.21233596    -0.72990
O908        O  0.27361895  0.54287036  0.28447267    -0.73020
O909        O  0.27732125  0.98827409  0.28429144    -0.73070
O910        O  0.27235157  0.54246683  0.21248568    -0.73120
O911        O  0.21873189  0.51198577  0.21345295    -0.73050
O912        O  0.22369087  0.95784458  0.28529938    -0.73030
O913        O  0.21997682  0.51247593  0.28544798    -0.73010
O914        O  0.22257086  0.95734930  0.21328733    -0.73070
Ni915      Ni  0.27679062  0.51641372  0.24834534     1.25410
Ni916      Ni  0.21931444  0.98385581  0.24940322     1.25360
C917        C  0.24999958  0.96319813  0.20173614     0.89190
C918        C  0.24624470  0.53705370  0.29609986     0.89120
C919        C  0.25144026  0.96383343  0.29589791     0.89150
C920        C  0.24458671  0.53653149  0.20196461     0.89320
O921        O  0.21131301  0.98790336  0.03747669    -0.72990
O922        O  0.27006904  0.54264291  0.46562459    -0.73020
O923        O  0.21079284  0.98852301  0.46563521    -0.73070
O924        O  0.27077412  0.54215245  0.03750257    -0.73120
O925        O  0.29307581  0.51142186  0.03650360    -0.73050
O926        O  0.23309988  0.95779165  0.46458524    -0.73030
O927        O  0.29241553  0.51194172  0.46460632    -0.73010
O928        O  0.23362245  0.95717276  0.03646065    -0.73070
Ni929      Ni  0.23989686  0.51638053  0.00162648     1.25410
Ni930      Ni  0.26390790  0.98351423  0.50051422     1.25360
C931        C  0.21229259  0.96319747  0.04797079     0.89190
C932        C  0.29124553  0.53649975  0.45391414     0.89120
C933        C  0.21173676  0.96412154  0.45391734     0.89150
C934        C  0.29225370  0.53594263  0.04805928     0.89320
O935        O  0.23338305  0.77484082  0.28631192    -0.72990
O936        O  0.29142243  0.77779344  0.21420422    -0.73020
O937        O  0.23335822  0.77509400  0.21427958    -0.73070
O938        O  0.29132869  0.77741350  0.28622161    -0.73120
O939        O  0.26637319  0.72379200  0.28594896    -0.73050
O940        O  0.20853284  0.72148100  0.21400107    -0.73030
O941        O  0.26657326  0.72418609  0.21386949    -0.73010
O942        O  0.20844180  0.72122437  0.28594233    -0.73070
Ni943      Ni  0.26331282  0.77821088  0.25025670     1.25410
Ni944      Ni  0.23656012  0.72075539  0.24991896     1.25360
C945        C  0.21090083  0.74741913  0.29726004     0.89190
C946        C  0.28902587  0.75162983  0.20289290     0.89120
C947        C  0.21088548  0.74772407  0.20311417     0.89150
C948        C  0.28879222  0.75111020  0.29724347     0.89320
C949        C  0.31258301  0.75273909  0.32174595    -0.11830
C950        C  0.33577052  0.75928210  0.34005895    -0.13390
C951        C  0.25400985  0.94210219  0.32018397    -0.11830
C952        C  0.26067747  0.92545940  0.33809994    -0.13390
C953        C  0.18694140  0.74555063  0.32167946    -0.11830
C954        C  0.16368546  0.73893049  0.33989694    -0.13390
C955        C  0.24454947  0.55919994  0.32041090    -0.11830
C956        C  0.23837050  0.57615276  0.33833877    -0.13390
C957        C  0.08571314  0.53473380  0.34347347    -0.11910
C958        C  0.06913913  0.53448623  0.37430384     0.10240
C959        C  0.08640191  0.55184841  0.40452080    -0.11910
C960        C  0.11998334  0.56924975  0.40398900    -0.11910
C961        C  0.13681483  0.56961288  0.37315185     0.10240
C962        C  0.11930865  0.55220724  0.34285307    -0.11910
H963        H  0.07258535  0.02158398  0.31987837     0.14230
H964        H  0.07381498  0.55172323  0.42853424     0.14230
H965        H  0.13276975  0.58197550  0.42790605     0.14230
H966        H  0.13156875  0.55239209  0.31855095     0.14230
C967        C  0.03512104  0.58537625  0.40598067    -0.11910
C968        C  0.03456578  0.56867473  0.37511117     0.10240
C969        C  0.05095937  0.58580001  0.34444156    -0.11910
C970        C  0.06772961  0.61935161  0.34458579    -0.11910
C971        C  0.06842393  0.63629492  0.37548088     0.10240
C972        C  0.05194354  0.61894074  0.40619963    -0.11910
H973        H  0.52266043  0.57237013  0.42989604     0.14230
H974        H  0.05053889  0.57312911  0.32037512     0.14230
H975        H  0.07977552  0.63202868  0.32037035     0.14230
H976        H  0.05241089  0.63130976  0.43052731     0.14230
C977        C  0.46437340  0.91302225  0.40598228    -0.11910
C978        C  0.46451390  0.92963328  0.37522342     0.10240
C979        C  0.44775885  0.91245799  0.34470144    -0.11910
C980        C  0.43107406  0.87892418  0.34486077    -0.11910
C981        C  0.43078155  0.86206350  0.37564911     0.10240
C982        C  0.44758070  0.87947346  0.40624189    -0.11910
H983        H  0.47712623  0.92608711  0.42978010     0.14230
H984        H  0.44787047  0.92507760  0.32072247     0.14230
H985        H  0.41879206  0.86620281  0.32072959     0.14230
H986        H  0.44741211  0.86716470  0.43049599     0.14230
C987        C  0.41322090  0.96525905  0.34372749    -0.11910
C988        C  0.42974346  0.96394167  0.37391190     0.10240
C989        C  0.41227454  0.94568574  0.40356106    -0.11910
C990        C  0.37865641  0.92902242  0.40311620    -0.11910
C991        C  0.36188079  0.93029261  0.37294377     0.10240
C992        C  0.37959754  0.94858190  0.34320996    -0.11910
H993        H  0.42641419  0.47910450  0.32053390     0.14230
H994        H  0.42472419  0.94463475  0.42716130     0.14230
H995        H  0.36584016  0.91565680  0.42668927     0.14230
H996        H  0.36750149  0.94967788  0.31933539     0.14290
C997        C  0.06895084  0.95000576  0.40580921    -0.11910
C998        C  0.06798356  0.93174933  0.37602084     0.10240
C999        C  0.04980270  0.93030922  0.34590325    -0.11910
C1000       C  0.03300934  0.94676123  0.34560233    -0.11910
C1001       C  0.03414770  0.96491639  0.37534175     0.10240
C1002       C  0.05217703  0.96647293  0.40543056    -0.11910
H1003       H  0.08225996  0.95118394  0.42963305     0.14230
H1004       H  0.04899053  0.91693607  0.32231897     0.14230
H1005       H  0.51931633  0.94557801  0.32210119     0.14230
H1006       H  0.05304474  0.48027650  0.42866064     0.14230
C1007       C  0.16386267  0.92670899  0.41118833    -0.11830
C1008       C  0.18733011  0.94287011  0.42933941    -0.13390
C1009       C  0.43294655  0.55091574  0.40627374    -0.11910
C1010       C  0.43309911  0.56816507  0.37590833     0.10240
C1011       C  0.44957483  0.56787026  0.34507331    -0.11910
C1012       C  0.46558043  0.55067232  0.34463291    -0.11910
C1013       C  0.46524483  0.53350926  0.37494086     0.10240
C1014       C  0.44887576  0.53364239  0.40573901    -0.11910
H1015       H  0.42085888  0.55110332  0.43056199     0.14230
H1016       H  0.44967652  0.58051737  0.32113965     0.14230
H1017       H  0.97813303  0.55059483  0.32067596     0.14230
H1018       H  0.44873502  0.02061920  0.42937656     0.14230
C1019       C  0.33848535  0.57467916  0.41116968    -0.11830
C1020       C  0.31521536  0.55818828  0.42935007    -0.13390
C1021       C  0.31303089  0.75359643  0.17843443    -0.11830
C1022       C  0.33632795  0.76035073  0.16019936    -0.13390
C1023       C  0.23557707  0.57540038  0.16013137    -0.11830
C1024       C  0.24197952  0.55847463  0.17795800    -0.13390
C1025       C  0.18670756  0.74586584  0.17905058    -0.11830
C1026       C  0.16315420  0.73893948  0.16121564    -0.13390
C1027       C  0.25831331  0.92465869  0.15893687    -0.11830
C1028       C  0.25192529  0.94115861  0.17743217    -0.13390
C1029       C  0.08555047  0.54043306  0.09331775    -0.11910
C1030       C  0.06935529  0.53861156  0.12520175     0.10240
C1031       C  0.08689887  0.55647519  0.15525183    -0.11910
C1032       C  0.12046766  0.57353629  0.15439827    -0.11910
C1033       C  0.13665014  0.57343763  0.12336643     0.10240
C1034       C  0.11916879  0.55768172  0.09251049    -0.11910
H1035       H  0.07218815  0.02707525  0.06988206     0.14230
H1036       H  0.07459804  0.55572724  0.17975205     0.14230
H1037       H  0.13383547  0.58616604  0.17810708     0.14230
H1038       H  0.13155981  0.55791183  0.06828426     0.14230
C1039       C  0.03655672  0.58627986  0.15651457    -0.11910
C1040       C  0.03436743  0.56933843  0.12515337     0.10240
C1041       C  0.04926612  0.58635199  0.09376059    -0.11910
C1042       C  0.06594314  0.61992045  0.09366192    -0.11910
C1043       C  0.06820432  0.63680071  0.12504585     0.10240
C1044       C  0.05353105  0.61987004  0.15649426    -0.11910
H1045       H  0.52523700  0.57342920  0.18091423     0.14230
H1046       H  0.04779800  0.57355023  0.06940946     0.14230
H1047       H  0.07728815  0.63275335  0.06925349     0.14230
H1048       H  0.05508343  0.63267879  0.18087419     0.14230
C1049       C  0.43162947  0.87999641  0.15586942    -0.11910
C1050       C  0.43208107  0.86310420  0.12538997     0.10240
C1051       C  0.44984613  0.88048498  0.09520005    -0.11910
C1052       C  0.46691992  0.91403907  0.09541342    -0.11910
C1053       C  0.46613595  0.93073021  0.12577327     0.10240
C1054       C  0.44829544  0.91356937  0.15608372    -0.11910
H1055       H  0.41865087  0.86729614  0.17967310     0.14230
H1056       H  0.45015528  0.86815757  0.07117845     0.14230
H1057       H  0.98034614  0.92703724  0.07192198     0.14230
H1058       H  0.44761678  0.92624421  0.17963982     0.14230
C1059       C  0.40999067  0.97896372  0.10323175    -0.11910
C1060       C  0.42738416  0.96323163  0.11179525     0.10240
C1061       C  0.40702738  0.92923386  0.11203202    -0.11910
C1062       C  0.37387660  0.91393109  0.11633946    -0.11910
C1063       C  0.35813123  0.93129618  0.11480857     0.10240
C1064       C  0.37642308  0.96398635  0.10670465    -0.11910
H1065       H  0.42087014  0.50212526  0.09134444     0.14230
H1066       H  0.41435303  0.91266882  0.10520799     0.14230
H1067       H  0.36046514  0.88800975  0.11923847     0.14230
H1068       H  0.36469311  0.97758466  0.10111497     0.14230
C1069       C  0.03873746  0.91511166  0.14082374    -0.11910
C1070       C  0.07188624  0.93115301  0.13493935     0.10240
C1071       C  0.08863599  0.96460646  0.13635202    -0.11910
C1072       C  0.07211660  0.98122192  0.13939734    -0.11910
C1073       C  0.03784938  0.96571300  0.13872166     0.10240
C1074       C  0.02315658  0.93235642  0.14599664    -0.11910
H1075       H  0.02462938  0.88920030  0.14300037     0.14230
H1076       H  0.11472526  0.97813926  0.13663899     0.14230
H1077       H  0.08804972  0.50577055  0.14484876     0.14230
H1078       H  0.50047710  0.91874435  0.15864259     0.14230
C1079       C  0.18787449  0.94118463  0.07197710    -0.11830
C1080       C  0.16451868  0.92448185  0.08999125    -0.13390
C1081       C  0.43446632  0.55196396  0.15770933    -0.11910
C1082       C  0.43571794  0.57048613  0.12824805     0.10240
C1083       C  0.45400567  0.57288140  0.09818261    -0.11910
C1084       C  0.47007772  0.55583827  0.09695586    -0.11910
C1085       C  0.46742822  0.53576464  0.12563037     0.10240
C1086       C  0.45039910  0.53466122  0.15646766    -0.11910
H1087       H  0.42056519  0.55034210  0.18115739     0.14230
H1088       H  0.45524580  0.58738748  0.07547785     0.14230
H1089       H  0.98324777  0.55694638  0.07305432     0.14230
H1090       H  0.44863555  0.01962395  0.17889746     0.14230
C1091       C  0.34037989  0.57408585  0.09033851    -0.11830
C1092       C  0.31693606  0.55752738  0.07226032    -0.13390
C1093       C  0.44170401  0.75495171  0.07143067    -0.11830
C1094       C  0.42504062  0.76148726  0.08950152    -0.13390
C1095       C  0.07562101  0.73810684  0.08867620    -0.11830
C1096       C  0.05903448  0.74498004  0.07095934    -0.13390
C1097       C  0.07516495  0.73795194  0.41067808    -0.11830
C1098       C  0.05852773  0.74458635  0.42863709    -0.13390
C1099       C  0.42463034  0.76068287  0.41052922    -0.11830
C1100       C  0.44138679  0.75423837  0.42852485    -0.13390
C1101       C  0.24017249  0.66481652  0.08715872    -0.11830
C1102       C  0.24631171  0.68801038  0.06915153    -0.13390
C1103       C  0.23982931  0.66513544  0.40832475    -0.11830
C1104       C  0.24656319  0.68840555  0.42654737    -0.13390
C1105       C  0.25433764  0.83528575  0.08680205    -0.11830
C1106       C  0.24859963  0.81192548  0.06924907    -0.13390
C1107       C  0.25084356  0.81247286  0.42622993    -0.11830
C1108       C  0.25794656  0.83575431  0.40786741    -0.13390
C1109       C  0.44331270  0.68623946  0.18081979    -0.11830
C1110       C  0.42653674  0.66284964  0.16290043    -0.13390
C1111       C  0.42681315  0.66340596  0.34173071    -0.11830
C1112       C  0.44298230  0.68686944  0.32365375    -0.13390
C1113       C  0.05998042  0.81371112  0.32399002    -0.11830
C1114       C  0.07580635  0.83722628  0.34216413    -0.13390
C1115       C  0.07938632  0.83592286  0.16313400    -0.11830
C1116       C  0.06211355  0.81261150  0.18090241    -0.13390
O1117       O  0.45937198  0.73247674  0.78753892    -0.72990
O1118       O  0.01539044  0.79076784  0.71570644    -0.73020
O1119       O  0.45998205  0.73234828  0.71564222    -0.73070
O1120       O  0.01443773  0.79111351  0.78761502    -0.73120
O1121       O  0.04425789  0.76779293  0.78862152    -0.73050
O1122       O  0.48941950  0.70861210  0.71666479    -0.73030
O1123       O  0.04479302  0.76699664  0.71671185    -0.73010
O1124       O  0.48920383  0.70916775  0.78852097    -0.73070
Ni1125     Ni  0.48626649  0.76256985  0.75157780     1.25410
Ni1126     Ni  0.01794858  0.73726192  0.75265321     1.25360
C1127       C  0.46491752  0.71084654  0.79918251     0.89190
C1128       C  0.03959535  0.78880870  0.70510959     0.89120
C1129       C  0.46537285  0.71038605  0.70506383     0.89150
C1130       C  0.03851713  0.78954039  0.79933080     0.89320
O1131       O  0.22068562  0.70844157  0.53373852    -0.72990
O1132       O  0.22196848  0.76588056  0.96171397    -0.73020
O1133       O  0.22105984  0.70880828  0.96180179    -0.73070
O1134       O  0.22110275  0.76533060  0.53380750    -0.73120
O1135       O  0.27485201  0.79175340  0.53441330    -0.73050
O1136       O  0.27480317  0.73486981  0.96240475    -0.73030
O1137       O  0.27570976  0.79194018  0.96239838    -0.73010
O1138       O  0.27444097  0.73486471  0.53441711    -0.73070
Ni1139     Ni  0.21928179  0.73614220  0.49776111     1.25410
Ni1140     Ni  0.27687342  0.76434073  0.49844805     1.25360
C1141       C  0.24729226  0.71173617  0.54508521     0.89190
C1142       C  0.24925829  0.78878869  0.95086619     0.89120
C1143       C  0.24770770  0.71201214  0.95097772     0.89150
C1144       C  0.24805419  0.78835049  0.54517662     0.89320
O1145       O  0.48816562  0.77861384  0.53590494    -0.72990
O1146       O  0.04260280  0.77448695  0.96386489    -0.73020
O1147       O  0.48794480  0.77826881  0.96388615    -0.73070
O1148       O  0.04284581  0.77476021  0.53585580    -0.73120
O1149       O  0.01225567  0.72120239  0.53607830    -0.73050
O1150       O  0.45744551  0.72470250  0.96411526    -0.73030
O1151       O  0.01208899  0.72092612  0.96413969    -0.73010
O1152       O  0.45761961  0.72505912  0.53613498    -0.73070
Ni1153     Ni  0.01644585  0.77845961  0.99987778     1.25410
Ni1154     Ni  0.48379147  0.72105995  0.00013530     1.25360
C1155       C  0.46359592  0.75265158  0.54712525     0.89190
C1156       C  0.03663761  0.74689443  0.95290230     0.89120
C1157       C  0.46336842  0.75218917  0.95286791     0.89150
C1158       C  0.03693563  0.74723049  0.54697919     0.89320
C1159       C  0.37050755  0.58918842  0.60937434     0.04570
C1160       C  0.38272268  0.61903173  0.62669533    -0.11580
C1161       C  0.41239492  0.63247089  0.64476477     0.02070
C1162       C  0.42933424  0.61612732  0.64573829    -0.10110
C1163       C  0.41725632  0.58676151  0.62829251     0.04560
C1164       C  0.38800894  0.57336115  0.60997544    -0.09530
H1165       H  0.36942765  0.63156861  0.62608370     0.10160
H1166       H  0.45220071  0.62644132  0.65971440     0.07680
H1167       H  0.37886593  0.55052957  0.59628931     0.07530
C1168       C  0.13473525  0.90954325  0.60951778     0.04570
C1169       C  0.12253206  0.87947650  0.62612333    -0.11580
C1170       C  0.09373390  0.86657701  0.64556784     0.02070
C1171       C  0.07784201  0.88378123  0.64889034    -0.10110
C1172       C  0.08931894  0.91334681  0.63159377     0.04560
C1173       C  0.11783957  0.92596433  0.61166764    -0.09530
H1174       H  0.13527036  0.86644010  0.62407434     0.10160
H1175       H  0.05662148  0.87399592  0.66563271     0.07680
H1176       H  0.12705143  0.94864280  0.59771311     0.07530
C1177       C  0.48277140  0.51609351  0.62305466     0.03730
C1178       C  0.46488744  0.98170282  0.61944261     0.03730
C1179       C  0.48335917  0.96582277  0.62570929     0.03730
C1180       C  0.01821636  0.98318173  0.63144651     0.03730
C1181       C  0.03408807  0.51749427  0.62750323     0.03730
C1182       C  0.01656903  0.53334598  0.62521543     0.03730
C1183       C  0.27306106  0.91003104  0.63886150     0.04570
C1184       C  0.25487102  0.87935112  0.62309517    -0.11580
C1185       C  0.27076131  0.86642870  0.60390204     0.02070
C1186       C  0.30419771  0.88409743  0.60056128    -0.10110
C1187       C  0.32253041  0.91421831  0.61690537     0.04560
C1188       C  0.30673676  0.92717560  0.63583210    -0.09530
H1189       H  0.22888401  0.86585107  0.62566915     0.10160
H1190       H  0.31600992  0.87418726  0.58489579     0.07680
H1191       H  0.32069693  0.95041277  0.64872834     0.07530
C1192       C  0.09016714  0.72244210  0.60712957     0.04570
C1193       C  0.07358560  0.68877800  0.60688572    -0.11580
C1194       C  0.08597247  0.67212441  0.62499004     0.02070
C1195       C  0.11534537  0.68919676  0.64302154    -0.10110
C1196       C  0.13265330  0.72286553  0.64271117     0.04560
C1197       C  0.11999478  0.73971226  0.62490325    -0.09530
H1198       H  0.05073136  0.67542976  0.59298365     0.10160
H1199       H  0.12492389  0.67616865  0.65695383     0.07680
H1200       H  0.13310325  0.76577244  0.62488713     0.07530
C1201       C  0.22103299  0.59104252  0.64139570     0.04570
C1202       C  0.18736464  0.57580076  0.64148266    -0.11580
C1203       C  0.17184082  0.58944110  0.62338331     0.02070
C1204       C  0.18987296  0.61850515  0.60541736    -0.10110
C1205       C  0.22348347  0.63447971  0.60572996     0.04560
C1206       C  0.23935959  0.62073426  0.62359336    -0.09530
H1207       H  0.17313333  0.55311102  0.65536519     0.10160
H1208       H  0.17759911  0.62893439  0.59152205     0.07680
H1209       H  0.26542195  0.63289820  0.62366509     0.07530
C1210       C  0.41027700  0.77694765  0.60800614     0.04570
C1211       C  0.42707365  0.81058512  0.60843650    -0.11580
C1212       C  0.41405947  0.82743331  0.62506826     0.02070
C1213       C  0.38380878  0.81004135  0.64147492    -0.10110
C1214       C  0.36682741  0.77638787  0.64164342     0.04560
C1215       C  0.37999567  0.75960596  0.62476592    -0.09530
H1216       H  0.45063162  0.82366398  0.59604691     0.10160
H1217       H  0.37320393  0.82270610  0.65402204     0.07680
H1218       H  0.36693994  0.73354958  0.62469775     0.07530
C1219       C  0.36886310  0.58936725  0.89292886     0.04570
C1220       C  0.38214404  0.61959675  0.87649667    -0.11580
C1221       C  0.41236122  0.63297663  0.85990762     0.02070
C1222       C  0.42903353  0.61627949  0.85995232    -0.10110
C1223       C  0.41574135  0.58604102  0.87624214     0.04560
C1224       C  0.38555663  0.57275404  0.89263043    -0.09530
H1225       H  0.36917946  0.63247596  0.87659753     0.10160
H1226       H  0.45252999  0.62701674  0.84742734     0.07680
H1227       H  0.37475594  0.54918558  0.90493379     0.07530
C1228       C  0.13339701  0.91181239  0.89292535     0.04570
C1229       C  0.12030004  0.88149674  0.87671597    -0.11580
C1230       C  0.08995519  0.86768100  0.86030627     0.02070
C1231       C  0.07288638  0.88397699  0.86039078    -0.10110
C1232       C  0.08596396  0.91438326  0.87631418     0.04560
C1233       C  0.11638875  0.92814982  0.89244734    -0.09530
H1234       H  0.13351458  0.86886723  0.87685820     0.10160
H1235       H  0.04922496  0.87274827  0.84815802     0.07680
H1236       H  0.12711092  0.95181848  0.90448751     0.07530
C1237       C  0.48270964  0.51583226  0.87467616     0.03730
C1238       C  0.46549107  0.98191497  0.87452053     0.03730
C1239       C  0.48240482  0.96520846  0.87492202     0.03730
C1240       C  0.01640006  0.98242254  0.87498821     0.03730
C1241       C  0.03350198  0.51633920  0.87478208     0.03730
C1242       C  0.01664436  0.53304372  0.87486569     0.03730
C1243       C  0.22297904  0.59111520  0.85642719     0.04570
C1244       C  0.24040396  0.62133984  0.87320462    -0.11580
C1245       C  0.22365592  0.63467153  0.88977021     0.02070
C1246       C  0.18993769  0.61785176  0.88934616    -0.10110
C1247       C  0.17250266  0.58767342  0.87282271     0.04560
C1248       C  0.18931113  0.57454283  0.85642272    -0.09530
H1249       H  0.26649570  0.63421737  0.87340613     0.10160
H1250       H  0.17724641  0.62845727  0.90183886     0.07680
H1251       H  0.17615475  0.55102792  0.84396335     0.07530
C1252       C  0.08993059  0.72242134  0.89235971     0.04570
C1253       C  0.12009132  0.73974620  0.87535194    -0.11580
C1254       C  0.13324322  0.72294244  0.85851144     0.02070
C1255       C  0.11632660  0.68929808  0.85883111    -0.10110
C1256       C  0.08627142  0.67193866  0.87560993     0.04560
C1257       C  0.07328996  0.68876709  0.89233761    -0.09530
H1258       H  0.13306858  0.76580286  0.87520982     0.10160
H1259       H  0.12682400  0.67658296  0.84615184     0.07680
H1260       H  0.04988834  0.67563590  0.90507578     0.07530
C1261       C  0.27588379  0.91025231  0.85625940     0.04570
C1262       C  0.25813257  0.87999492  0.87286362    -0.11580
C1263       C  0.27450469  0.86619270  0.88929624     0.02070
C1264       C  0.30821150  0.88252589  0.88882933    -0.10110
C1265       C  0.32608749  0.91281713  0.87263350     0.04560
C1266       C  0.30958498  0.92645980  0.85644344    -0.09530
H1267       H  0.23204845  0.86743385  0.87302710     0.10160
H1268       H  0.32052501  0.87140958  0.90106665     0.07680
H1269       H  0.32297089  0.95003457  0.84421717     0.07530
C1270       C  0.40972488  0.77608989  0.89229612     0.04570
C1271       C  0.42624756  0.80973093  0.89232846    -0.11580
C1272       C  0.41305911  0.82644484  0.87577350     0.02070
C1273       C  0.38293725  0.80898700  0.85911093    -0.10110
C1274       C  0.36619216  0.77535628  0.85869236     0.04560
C1275       C  0.37952403  0.75865644  0.87536870    -0.09530
H1276       H  0.44970985  0.82293323  0.90497719     0.10160
H1277       H  0.37226916  0.82160603  0.84656111     0.07680
H1278       H  0.36665817  0.73260190  0.87515897     0.07530
O1279       O  0.27620153  0.98784749  0.71233594    -0.72990
O1280       O  0.27361897  0.54287042  0.78447274    -0.73020
O1281       O  0.27732115  0.98827397  0.78429141    -0.73070
O1282       O  0.27235161  0.54246687  0.71248575    -0.73120
O1283       O  0.21873193  0.51198580  0.71345300    -0.73050
O1284       O  0.22369077  0.95784446  0.78529936    -0.73030
O1285       O  0.21997683  0.51247599  0.78544803    -0.73010
O1286       O  0.22257078  0.95734900  0.71328731    -0.73070
Ni1287     Ni  0.27679065  0.51641378  0.74834543     1.25410
Ni1288     Ni  0.21931435  0.98385561  0.74940310     1.25360
C1289       C  0.24999951  0.96319775  0.70173623     0.89190
C1290       C  0.24624471  0.53705377  0.79609991     0.89120
C1291       C  0.25144016  0.96383333  0.79589790     0.89150
C1292       C  0.24458675  0.53653152  0.70196466     0.89320
O1293       O  0.21131316  0.98790343  0.53747678    -0.72990
O1294       O  0.27006902  0.54264286  0.96562467    -0.73020
O1295       O  0.21079279  0.98852295  0.96563512    -0.73070
O1296       O  0.27077417  0.54215250  0.53750249    -0.73120
O1297       O  0.29307587  0.51142192  0.53650350    -0.73050
O1298       O  0.23309987  0.95779163  0.96458524    -0.73030
O1299       O  0.29241550  0.51194167  0.96460641    -0.73010
O1300       O  0.23362254  0.95717277  0.53646065    -0.73070
Ni1301     Ni  0.23989690  0.51638058  0.50162642     1.25410
Ni1302     Ni  0.26390784  0.98351424  0.00051426     1.25360
C1303       C  0.21229272  0.96319751  0.54797084     0.89190
C1304       C  0.29124551  0.53649970  0.95391422     0.89120
C1305       C  0.21173675  0.96412149  0.95391728     0.89150
C1306       C  0.29225375  0.53594268  0.54805919     0.89320
O1307       O  0.23338305  0.77484078  0.78631191    -0.72990
O1308       O  0.29142241  0.77779341  0.71420417    -0.73020
O1309       O  0.23335818  0.77509395  0.71427957    -0.73070
O1310       O  0.29132869  0.77741347  0.78622157    -0.73120
O1311       O  0.26637320  0.72379197  0.78594893    -0.73050
O1312       O  0.20853283  0.72148094  0.71400107    -0.73030
O1313       O  0.26657326  0.72418606  0.71386944    -0.73010
O1314       O  0.20844181  0.72122433  0.78594232    -0.73070
Ni1315     Ni  0.26331281  0.77821084  0.75025667     1.25410
Ni1316     Ni  0.23656012  0.72075535  0.74991894     1.25360
C1317       C  0.21090083  0.74741909  0.79726004     0.89190
C1318       C  0.28902585  0.75162980  0.70289283     0.89120
C1319       C  0.21088545  0.74772401  0.70311416     0.89150
C1320       C  0.28879223  0.75111017  0.79724343     0.89320
C1321       C  0.31258301  0.75273907  0.82174593    -0.11830
C1322       C  0.33577051  0.75928208  0.84005895    -0.13390
C1323       C  0.25400976  0.94210212  0.82018400    -0.11830
C1324       C  0.26067742  0.92545936  0.83809997    -0.13390
C1325       C  0.18694140  0.74555060  0.82167945    -0.11830
C1326       C  0.16368546  0.73893047  0.83989694    -0.13390
C1327       C  0.24454948  0.55920002  0.82041095    -0.11830
C1328       C  0.23837053  0.57615287  0.83833882    -0.13390
C1329       C  0.08571313  0.53473381  0.84347348    -0.11910
C1330       C  0.06913912  0.53448622  0.87430385     0.10240
C1331       C  0.08640188  0.55184841  0.90452081    -0.11910
C1332       C  0.11998331  0.56924976  0.90398902    -0.11910
C1333       C  0.13681482  0.56961291  0.87315187     0.10240
C1334       C  0.11930864  0.55220727  0.84285308    -0.11910
H1335       H  0.07258531  0.02158394  0.81987835     0.14230
H1336       H  0.07381495  0.55172321  0.92853425     0.14230
H1337       H  0.13276972  0.58197551  0.92790607     0.14230
H1338       H  0.13156875  0.55239214  0.81855096     0.14230
C1339       C  0.03512103  0.58537625  0.90598068    -0.11910
C1340       C  0.03456577  0.56867472  0.87511118     0.10240
C1341       C  0.05095935  0.58580001  0.84444156    -0.11910
C1342       C  0.06772959  0.61935161  0.84458579    -0.11910
C1343       C  0.06842391  0.63629491  0.87548088     0.10240
C1344       C  0.05194352  0.61894073  0.90619963    -0.11910
H1345       H  0.52266042  0.57237014  0.92989604     0.14230
H1346       H  0.05053887  0.57312911  0.82037513     0.14230
H1347       H  0.07977549  0.63202867  0.82037035     0.14230
H1348       H  0.05241088  0.63130975  0.93052732     0.14230
C1349       C  0.46437341  0.91302224  0.90598229    -0.11910
C1350       C  0.46451390  0.92963327  0.87522343     0.10240
C1351       C  0.44775881  0.91245798  0.84470147    -0.11910
C1352       C  0.43107401  0.87892416  0.84486081    -0.11910
C1353       C  0.43078152  0.86206348  0.87564915     0.10240
C1354       C  0.44758070  0.87947345  0.90624191    -0.11910
H1355       H  0.47712627  0.92608711  0.92978010     0.14230
H1356       H  0.44787042  0.92507758  0.82072251     0.14230
H1357       H  0.41879199  0.86620280  0.82072964     0.14230
H1358       H  0.44741212  0.86716469  0.93049601     0.14230
C1359       C  0.41322090  0.96525909  0.84372749    -0.11910
C1360       C  0.42974345  0.96394166  0.87391188     0.10240
C1361       C  0.41227453  0.94568570  0.90356102    -0.11910
C1362       C  0.37865640  0.92902239  0.90311615    -0.11910
C1363       C  0.36188078  0.93029262  0.87294375     0.10240
C1364       C  0.37959754  0.94858196  0.84320996    -0.11910
H1365       H  0.42641419  0.47910448  0.82053388     0.14230
H1366       H  0.42472417  0.94463468  0.92716124     0.14230
H1367       H  0.36584014  0.91565675  0.92668922     0.14230
H1368       H  0.36750150  0.94967797  0.81933540     0.14290
C1369       C  0.06895089  0.95000580  0.90580918    -0.11910
C1370       C  0.06798355  0.93174931  0.87602084     0.10240
C1371       C  0.04980264  0.93030914  0.84590328    -0.11910
C1372       C  0.03300927  0.94676116  0.84560237    -0.11910
C1373       C  0.03414768  0.96491637  0.87534176     0.10240
C1374       C  0.05217708  0.96647296  0.90543054    -0.11910
H1375       H  0.08226006  0.95118403  0.92963300     0.14230
H1376       H  0.04899043  0.91693596  0.82231901     0.14230
H1377       H  0.51931619  0.94557783  0.82210129     0.14230
H1378       H  0.05304478  0.48027654  0.92866062     0.14230
C1379       C  0.16386268  0.92670894  0.91118827    -0.11830
C1380       C  0.18733013  0.94287004  0.92933934    -0.13390
C1381       C  0.43294654  0.55091572  0.90627374    -0.11910
C1382       C  0.43309908  0.56816504  0.87590833     0.10240
C1383       C  0.44957481  0.56787024  0.84507330    -0.11910
C1384       C  0.46558043  0.55067232  0.84463290    -0.11910
C1385       C  0.46524484  0.53350927  0.87494086     0.10240
C1386       C  0.44887577  0.53364240  0.90573902    -0.11910
H1387       H  0.42085887  0.55110330  0.93056199     0.14230
H1388       H  0.44967649  0.58051735  0.82113965     0.14230
H1389       H  0.97813302  0.55059482  0.82067597     0.14230
H1390       H  0.44873499  0.02061917  0.92937656     0.14230
C1391       C  0.33848532  0.57467910  0.91116974    -0.11830
C1392       C  0.31521534  0.55818822  0.92935015    -0.13390
C1393       C  0.31303082  0.75359642  0.67843425    -0.11830
C1394       C  0.33632781  0.76035074  0.66019905    -0.13390
C1395       C  0.23557711  0.57540036  0.66013134    -0.11830
C1396       C  0.24197957  0.55847464  0.67795802    -0.13390
C1397       C  0.18670752  0.74586577  0.67905058    -0.11830
C1398       C  0.16315416  0.73893938  0.66121563    -0.13390
C1399       C  0.25831322  0.92465758  0.65893804    -0.11830
C1400       C  0.25192525  0.94115794  0.67743268    -0.13390
C1401       C  0.08555038  0.54043199  0.59331791    -0.11910
C1402       C  0.06935522  0.53861121  0.62520166     0.10240
C1403       C  0.08689883  0.55647547  0.65525143    -0.11910
C1404       C  0.12046760  0.57353654  0.65439786    -0.11910
C1405       C  0.13665007  0.57343727  0.62336629     0.10240
C1406       C  0.11916871  0.55768068  0.59251061    -0.11910
H1407       H  0.07218811  0.02707477  0.56988216     0.14230
H1408       H  0.07459802  0.55572801  0.67975149     0.14230
H1409       H  0.13383543  0.58616677  0.67810646     0.14230
H1410       H  0.13155972  0.55791032  0.56828457     0.14230
C1411       C  0.03655662  0.58627975  0.65651451    -0.11910
C1412       C  0.03436745  0.56933829  0.62515337     0.10240
C1413       C  0.04926624  0.58635184  0.59376061    -0.11910
C1414       C  0.06594323  0.61992031  0.59366192    -0.11910
C1415       C  0.06820430  0.63680059  0.62504579     0.10240
C1416       C  0.05353094  0.61986993  0.65649418    -0.11910
H1417       H  0.52523708  0.57342924  0.68091427     0.14230
H1418       H  0.04779820  0.57355008  0.56940952     0.14230
H1419       H  0.07728831  0.63275320  0.56925350     0.14230
H1420       H  0.05508324  0.63267869  0.68087408     0.14230
C1421       C  0.43162739  0.87999665  0.65586772    -0.11910
C1422       C  0.43208075  0.86310440  0.62538918     0.10240
C1423       C  0.44984770  0.88048529  0.59520019    -0.11910
C1424       C  0.46692171  0.91403941  0.59541376    -0.11910
C1425       C  0.46613577  0.93073052  0.62577268     0.10240
C1426       C  0.44829327  0.91356958  0.65608197    -0.11910
H1427       H  0.41864754  0.86729647  0.67967086     0.14230
H1428       H  0.45015822  0.86815801  0.57117912     0.14230
H1429       H  0.98034582  0.92703722  0.57192184     0.14230
H1430       H  0.44761316  0.92624436  0.67963740     0.14230
C1431       C  0.40998929  0.97896425  0.60323734    -0.11910
C1432       C  0.42738418  0.96323238  0.61179500     0.10240
C1433       C  0.40702859  0.92923445  0.61202589    -0.11910
C1434       C  0.37387771  0.91392987  0.61633477    -0.11910
C1435       C  0.35813106  0.93129411  0.61481026     0.10240
C1436       C  0.37642179  0.96398528  0.60671108    -0.11910
H1437       H  0.42087004  0.50212527  0.59134471     0.14230
H1438       H  0.41435594  0.91267158  0.60519697     0.14230
H1439       H  0.36046737  0.88800821  0.61922999     0.14230
H1440       H  0.36469098  0.97758352  0.60112559     0.14230
C1441       C  0.03873754  0.91511162  0.64082321    -0.11910
C1442       C  0.07188638  0.93115312  0.63493930     0.10240
C1443       C  0.08863604  0.96460656  0.63635241    -0.11910
C1444       C  0.07211652  0.98122191  0.63939783    -0.11910
C1445       C  0.03784929  0.96571290  0.63872164     0.10240
C1446       C  0.02315651  0.93235622  0.64599612    -0.11910
H1447       H  0.02462951  0.88920023  0.64299948     0.14230
H1448       H  0.11472531  0.97813941  0.63663971     0.14230
H1449       H  0.08804893  0.50577031  0.64485197     0.14230
H1450       H  0.50047635  0.91874575  0.65864551     0.14230
C1451       C  0.18787463  0.94118469  0.57197718    -0.11830
C1452       C  0.16451884  0.92448194  0.58999135    -0.13390
C1453       C  0.43446640  0.55196405  0.65770934    -0.11910
C1454       C  0.43571796  0.57048616  0.62824802     0.10240
C1455       C  0.45400564  0.57288138  0.59818255    -0.11910
C1456       C  0.47007769  0.55583824  0.59695580    -0.11910
C1457       C  0.46742823  0.53576467  0.62563035     0.10240
C1458       C  0.45039918  0.53466131  0.65646768    -0.11910
H1459       H  0.42056531  0.55034223  0.68115742     0.14230
H1460       H  0.45524573  0.58738742  0.57547777     0.14230
H1461       H  0.98324783  0.55694640  0.57305437     0.14230
H1462       H  0.44863932  0.01962794  0.67889853     0.14230
C1463       C  0.34037991  0.57408588  0.59033846    -0.11830
C1464       C  0.31693610  0.55752742  0.57226025    -0.13390
C1465       C  0.44170409  0.75495175  0.57143080    -0.11830
C1466       C  0.42504071  0.76148732  0.58950166    -0.13390
C1467       C  0.07562097  0.73810674  0.58867619    -0.11830
C1468       C  0.05903445  0.74497997  0.57095934    -0.13390
C1469       C  0.07516496  0.73795195  0.91067808    -0.11830
C1470       C  0.05852773  0.74458636  0.92863708    -0.13390
C1471       C  0.42463035  0.76068287  0.91052921    -0.11830
C1472       C  0.44138681  0.75423838  0.92852482    -0.13390
C1473       C  0.24017228  0.66481631  0.58715857    -0.11830
C1474       C  0.24631144  0.68801012  0.56915131    -0.13390
C1475       C  0.23982918  0.66513546  0.90832495    -0.11830
C1476       C  0.24656301  0.68840554  0.92654763    -0.13390
C1477       C  0.25433668  0.83528453  0.58680268    -0.11830
C1478       C  0.24859874  0.81192459  0.56924917    -0.13390
C1479       C  0.25084366  0.81247294  0.92623003    -0.11830
C1480       C  0.25794660  0.83575435  0.90786746    -0.13390
C1481       C  0.44331265  0.68623941  0.68081986    -0.11830
C1482       C  0.42653670  0.66284962  0.66290047    -0.13390
C1483       C  0.42681309  0.66340593  0.84173079    -0.11830
C1484       C  0.44298224  0.68686942  0.82365385    -0.13390
C1485       C  0.05998042  0.81371110  0.82398998    -0.11830
C1486       C  0.07580634  0.83722626  0.84216410    -0.13390
C1487       C  0.07938636  0.83592294  0.66313399    -0.11830
C1488       C  0.06211357  0.81261156  0.68090237    -0.13390
O1489       O  0.95937043  0.23247194  0.28753932    -0.72990
O1490       O  0.51539050  0.29075162  0.21570533    -0.73020
O1491       O  0.95998382  0.23233450  0.21564270    -0.73070
O1492       O  0.51443569  0.29110805  0.28761263    -0.73120
O1493       O  0.54425591  0.26778765  0.28862953    -0.73050
O1494       O  0.98942181  0.20859898  0.21667612    -0.73030
O1495       O  0.54479304  0.26698006  0.21672177    -0.73010
O1496       O  0.98920287  0.20916346  0.28853166    -0.73070
Ni1497     Ni  0.98626589  0.26255995  0.25157692     1.25410
Ni1498     Ni  0.51794831  0.23725207  0.25266393     1.25360
C1499       C  0.96491650  0.21084384  0.29918822     0.89190
C1500       C  0.53959425  0.28878889  0.20511301     0.89120
C1501       C  0.96537666  0.21037238  0.20506878     0.89150
C1502       C  0.53851481  0.28953650  0.29933274     0.89320
O1503       O  0.72067050  0.20842706  0.03372538    -0.72990
O1504       O  0.72196178  0.26587269  0.46170397    -0.73020
O1505       O  0.72105797  0.20880354  0.46178881    -0.73070
O1506       O  0.72108067  0.26531014  0.03379681    -0.73120
O1507       O  0.77483022  0.29173785  0.03441533    -0.73050
O1508       O  0.77480147  0.23486792  0.46240429    -0.73030
O1509       O  0.77570309  0.29193552  0.46240073    -0.73010
O1510       O  0.77442588  0.23485399  0.03441690    -0.73070
Ni1511     Ni  0.71927054  0.23613035  0.99774884     1.25410
Ni1512     Ni  0.77686242  0.26433289  0.99844927     1.25360
C1513       C  0.74727591  0.21172359  0.04507939     0.89190
C1514       C  0.74925297  0.28878356  0.45086305     0.89120
C1515       C  0.74770856  0.21201085  0.45097089     0.89150
C1516       C  0.74802859  0.28832837  0.04517415     0.89320
O1517       O  0.98816699  0.27860979  0.03591011    -0.72990
O1518       O  0.54260170  0.27448270  0.46386705    -0.73020
O1519       O  0.98794619  0.27826963  0.46389054    -0.73070
O1520       O  0.54284357  0.27474897  0.03585857    -0.73120
O1521       O  0.51224818  0.22119165  0.03607564    -0.73050
O1522       O  0.95744376  0.22470362  0.46411455    -0.73030
O1523       O  0.51208454  0.22092217  0.46413700    -0.73010
O1524       O  0.95761634  0.22505550  0.03613475    -0.73070
Ni1525     Ni  0.51644583  0.27845502  0.49988152     1.25410
Ni1526     Ni  0.98378708  0.22105580  0.50013350     1.25360
C1527       C  0.96359580  0.25264806  0.04712887     0.89190
C1528       C  0.53663479  0.24689037  0.45290175     0.89120
C1529       C  0.96336889  0.25219165  0.45286979     0.89150
C1530       C  0.53692967  0.24721698  0.04697903     0.89320
C1531       C  0.87050214  0.08917784  0.10938144     0.04570
C1532       C  0.88272818  0.11902518  0.12669583    -0.11580
C1533       C  0.91239815  0.13245498  0.14476842     0.02070
C1534       C  0.92932514  0.11609858  0.14574917    -0.10110
C1535       C  0.91723336  0.08672635  0.12831261     0.04560
C1536       C  0.88798811  0.07333543  0.10999420    -0.09530
H1537       H  0.86944347  0.13157242  0.12607633     0.10160
H1538       H  0.95219099  0.12640606  0.15972539     0.07680
H1539       H  0.87883648  0.05050081  0.09631199     0.07530
C1540       C  0.63464165  0.40949351  0.10945987     0.04570
C1541       C  0.62247539  0.37944582  0.12609326    -0.11580
C1542       C  0.59367557  0.36652805  0.14553654     0.02070
C1543       C  0.57775060  0.38370196  0.14885458    -0.10110
C1544       C  0.58919427  0.41325682  0.13154919     0.04560
C1545       C  0.61770329  0.42587257  0.11158437    -0.09530
H1546       H  0.63524284  0.36643684  0.12406673     0.10160
H1547       H  0.55654264  0.37390420  0.16561501     0.07680
H1548       H  0.62689036  0.44852890  0.09759196     0.07530
C1549       C  0.98274772  0.01604988  0.12307090     0.03730
C1550       C  0.96490902  0.48174477  0.11941287     0.03730
C1551       C  0.98338249  0.46586157  0.12568250     0.03730
C1552       C  0.51823943  0.48323241  0.13143084     0.03730
C1553       C  0.53406991  0.01744626  0.12751268     0.03730
C1554       C  0.51654977  0.03330329  0.12522747     0.03730
C1555       C  0.77307941  0.40997000  0.13894257     0.04570
C1556       C  0.75487201  0.37930640  0.12314764    -0.11580
C1557       C  0.77074836  0.36636359  0.10396548     0.02070
C1558       C  0.80418830  0.38399738  0.10065205    -0.10110
C1559       C  0.82254197  0.41410292  0.11702054     0.04560
C1560       C  0.80675808  0.42707372  0.13595289    -0.09530
H1561       H  0.72888162  0.36583633  0.12568571     0.10160
H1562       H  0.81597666  0.37407945  0.08495959     0.07680
H1563       H  0.82072543  0.45030255  0.14886380     0.07530
C1564       C  0.59014950  0.22241011  0.10712851     0.04570
C1565       C  0.57356693  0.18874522  0.10688547    -0.11580
C1566       C  0.58595386  0.17209045  0.12498878     0.02070
C1567       C  0.61532811  0.18916399  0.14301927    -0.10110
C1568       C  0.63263631  0.22283353  0.14270916     0.04560
C1569       C  0.61997737  0.23967983  0.12490153    -0.09530
H1570       H  0.55071239  0.17539745  0.09298409     0.10160
H1571       H  0.62490700  0.17613628  0.15695153     0.07680
H1572       H  0.63308605  0.26574007  0.12488510     0.07530
C1573       C  0.72102825  0.09103606  0.14139320     0.04570
C1574       C  0.68735941  0.07578168  0.14147096    -0.11580
C1575       C  0.67182960  0.08941459  0.12337109     0.02070
C1576       C  0.68985551  0.11848446  0.10541351    -0.10110
C1577       C  0.72346698  0.13446885  0.10573035     0.04560
C1578       C  0.73934928  0.12073083  0.12359552    -0.09530
H1579       H  0.67313232  0.05308901  0.15534951     0.10160
H1580       H  0.67757631  0.12890767  0.09151756     0.07680
H1581       H  0.76541209  0.13290267  0.12367205     0.07530
C1582       C  0.91028276  0.27695293  0.10800658     0.04570
C1583       C  0.92708390  0.31059056  0.10843432    -0.11580
C1584       C  0.91406470  0.32744728  0.12503847     0.02070
C1585       C  0.88380301  0.31005556  0.14142792    -0.10110
C1586       C  0.86682524  0.27640144  0.14161650     0.04560
C1587       C  0.87999787  0.25961572  0.12475839    -0.09530
H1588       H  0.95065003  0.32366030  0.09606326     0.10160
H1589       H  0.87318592  0.32271818  0.15395106     0.07680
H1590       H  0.86694270  0.23355930  0.12469933     0.07530
C1591       C  0.86886406  0.08936865  0.39292351     0.04570
C1592       C  0.88214684  0.11959804  0.37649366    -0.11580
C1593       C  0.91236440  0.13297708  0.35990866     0.02070
C1594       C  0.92903617  0.11627944  0.35995363    -0.10110
C1595       C  0.91574202  0.08604016  0.37624198     0.04560
C1596       C  0.88555622  0.07275382  0.39262798    -0.09530
H1597       H  0.86918295  0.13247802  0.37659300     0.10160
H1598       H  0.95253329  0.12701676  0.34743022     0.07680
H1599       H  0.87475360  0.04918501  0.40493076     0.07530
C1600       C  0.63339368  0.41181296  0.39292501     0.04570
C1601       C  0.62029727  0.38149712  0.37671582    -0.11580
C1602       C  0.58995262  0.36768115  0.36030507     0.02070
C1603       C  0.57288371  0.38397706  0.36038884    -0.10110
C1604       C  0.58596089  0.41438321  0.37631235     0.04560
C1605       C  0.61638534  0.42815004  0.39244584    -0.09530
H1606       H  0.63351186  0.36886768  0.37685917     0.10160
H1607       H  0.54922248  0.37274835  0.34815564     0.07680
H1608       H  0.62710711  0.45181877  0.40448585     0.07530
C1609       C  0.98270958  0.01583021  0.37467646     0.03730
C1610       C  0.96549101  0.48191706  0.37452093     0.03730
C1611       C  0.98240463  0.46521055  0.37492187     0.03730
C1612       C  0.51639969  0.48242442  0.37498717     0.03730
C1613       C  0.53350219  0.01633740  0.37478315     0.03730
C1614       C  0.51664427  0.03304169  0.37486651     0.03730
C1615       C  0.72298018  0.09111534  0.35643045     0.04570
C1616       C  0.74040472  0.12134021  0.37320541    -0.11580
C1617       C  0.72365685  0.13467237  0.38976829     0.02070
C1618       C  0.68993851  0.11785286  0.38934487    -0.10110
C1619       C  0.67250335  0.08767371  0.37282295     0.04560
C1620       C  0.68931217  0.07454260  0.35642473    -0.09530
H1621       H  0.76649650  0.13421773  0.37340724     0.10160
H1622       H  0.67724749  0.12845908  0.40183658     0.07680
H1623       H  0.67615623  0.05102722  0.34396637     0.07530
C1624       C  0.58992944  0.22241912  0.39235854     0.04570
C1625       C  0.62009016  0.23974371  0.37535011    -0.11580
C1626       C  0.63324183  0.22293941  0.35850983     0.02070
C1627       C  0.61632509  0.18929516  0.35883054    -0.10110
C1628       C  0.58627012  0.17193623  0.37560966     0.04560
C1629       C  0.57328887  0.18876489  0.39233707    -0.09530
H1630       H  0.63306743  0.26580035  0.37520729     0.10160
H1631       H  0.62682222  0.17657964  0.34615160     0.07680
H1632       H  0.54988735  0.17563382  0.40507550     0.07530
C1633       C  0.77588425  0.41025180  0.35626029     0.04570
C1634       C  0.75813267  0.37999405  0.37286373    -0.11580
C1635       C  0.77450451  0.36619151  0.38929648     0.02070
C1636       C  0.80821142  0.38252481  0.38883025    -0.10110
C1637       C  0.82608755  0.41281622  0.37263474     0.04560
C1638       C  0.80958530  0.42645916  0.35644493    -0.09530
H1639       H  0.73204856  0.36743297  0.37302653     0.10160
H1640       H  0.82052486  0.37140846  0.40106765     0.07680
H1641       H  0.82297138  0.45003415  0.34421917     0.07530
C1642       C  0.90972537  0.27609274  0.39229579     0.04570
C1643       C  0.92624787  0.30973370  0.39232824    -0.11580
C1644       C  0.91305964  0.32644757  0.37577296     0.02070
C1645       C  0.88293821  0.30899004  0.35910973    -0.10110
C1646       C  0.86619321  0.27535946  0.35869026     0.04560
C1647       C  0.87952475  0.25865929  0.37536721    -0.09530
H1648       H  0.94970995  0.32293605  0.40497743     0.10160
H1649       H  0.87227043  0.32160931  0.34655975     0.07680
H1650       H  0.86665898  0.23260478  0.37515701     0.07530
O1651       O  0.77621481  0.48784804  0.21233637    -0.72990
O1652       O  0.77362148  0.04287163  0.28447952    -0.73020
O1653       O  0.77732528  0.48827621  0.28429159    -0.73070
O1654       O  0.77234867  0.04246968  0.21249305    -0.73120
O1655       O  0.71872841  0.01199474  0.21346663    -0.73050
O1656       O  0.72369519  0.45784277  0.28529401    -0.73030
O1657       O  0.71997893  0.01248081  0.28546093    -0.73010
O1658       O  0.72258488  0.45734293  0.21328181    -0.73070
Ni1659     Ni  0.77678645  0.01641399  0.24834899     1.25410
Ni1660     Ni  0.71931934  0.48385032  0.24939318     1.25360
C1661       C  0.75001669  0.46319271  0.20173819     0.89190
C1662       C  0.74624885  0.03705690  0.29611008     0.89120
C1663       C  0.75144431  0.46383422  0.29589634     0.89150
C1664       C  0.74458429  0.03653727  0.20197484     0.89320
O1665       O  0.71129251  0.48791182  0.03748051    -0.72990
O1666       O  0.77006846  0.04264439  0.46561476    -0.73020
O1667       O  0.71078698  0.48852868  0.46563833    -0.73070
O1668       O  0.77078194  0.04215152  0.03749198    -0.73120
O1669       O  0.79309753  0.01143341  0.03648053    -0.73050
O1670       O  0.73308468  0.45778882  0.46460000    -0.73030
O1671       O  0.79242389  0.01195115  0.46458461    -0.73010
O1672       O  0.73358695  0.45716809  0.03647663    -0.73070
Ni1673     Ni  0.73990455  0.01637679  0.00161946     1.25410
Ni1674     Ni  0.76388728  0.48350673  0.50053435     1.25360
C1675       C  0.71225649  0.46319785  0.04797595     0.89190
C1676       C  0.79124675  0.03650626  0.45389829     0.89120
C1677       C  0.71172741  0.46412392  0.45392469     0.89150
C1678       C  0.79226656  0.03594756  0.04804361     0.89320
O1679       O  0.73337808  0.27483563  0.28630606    -0.72990
O1680       O  0.79141829  0.27779580  0.21419523    -0.73020
O1681       O  0.73334776  0.27508440  0.21427323    -0.73070
O1682       O  0.79132771  0.27741629  0.28621361    -0.73120
O1683       O  0.76637780  0.22379516  0.28594308    -0.73050
O1684       O  0.70853115  0.22147200  0.21399702    -0.73030
O1685       O  0.76657777  0.22418910  0.21386237    -0.73010
O1686       O  0.70844251  0.22121956  0.28593839    -0.73070
Ni1687     Ni  0.76330751  0.27820844  0.25024933     1.25410
Ni1688     Ni  0.73656252  0.22075355  0.24991380     1.25360
C1689       C  0.71089843  0.24741332  0.29725555     0.89190
C1690       C  0.78902639  0.25163449  0.20288336     0.89120
C1691       C  0.71087754  0.24771198  0.20310942     0.89150
C1692       C  0.78879471  0.25111462  0.29723676     0.89320
C1693       C  0.81258625  0.25274578  0.32174013    -0.11830
C1694       C  0.83577241  0.25928661  0.34005477    -0.13390
C1695       C  0.75401324  0.44210361  0.32018402    -0.11830
C1696       C  0.76067884  0.42545967  0.33810064    -0.13390
C1697       C  0.68693867  0.24554376  0.32167570    -0.11830
C1698       C  0.66368370  0.23892599  0.33989411    -0.13390
C1699       C  0.74455642  0.05920354  0.32042091    -0.11830
C1700       C  0.73837389  0.07615435  0.33834632    -0.13390
C1701       C  0.58571362  0.03473239  0.34347449    -0.11910
C1702       C  0.56913950  0.03448488  0.37430478     0.10240
C1703       C  0.58640236  0.05184797  0.40452132    -0.11910
C1704       C  0.61998385  0.06925006  0.40398920    -0.11910
C1705       C  0.63681540  0.06961291  0.37315222     0.10240
C1706       C  0.61930918  0.05220640  0.34285385    -0.11910
H1707       H  0.57258483  0.52158596  0.31987715     0.14230
H1708       H  0.57381546  0.05172300  0.42853469     0.14230
H1709       H  0.63277032  0.08197658  0.42790589     0.14230
H1710       H  0.63156935  0.05239095  0.31855191     0.14230
C1711       C  0.53512065  0.08537419  0.40598127    -0.11910
C1712       C  0.53456539  0.06867260  0.37511183     0.10240
C1713       C  0.55095839  0.08579770  0.34444192    -0.11910
C1714       C  0.56772817  0.11934923  0.34458583    -0.11910
C1715       C  0.56842265  0.13629261  0.37548091     0.10240
C1716       C  0.55194276  0.11893864  0.40619993    -0.11910
H1717       H  0.02266041  0.07236815  0.42989680     0.14230
H1718       H  0.55053780  0.07312670  0.32037553     0.14230
H1719       H  0.57977366  0.13202619  0.32037018     0.14230
H1720       H  0.55241025  0.13130780  0.43052756     0.14230
C1721       C  0.96437318  0.41302454  0.40598223    -0.11910
C1722       C  0.96451376  0.42963550  0.37522329     0.10240
C1723       C  0.94775913  0.41246038  0.34470112    -0.11910
C1724       C  0.93107460  0.37892666  0.34486030    -0.11910
C1725       C  0.93078191  0.36206602  0.37564875     0.10240
C1726       C  0.94758064  0.37947582  0.40624173    -0.11910
H1727       H  0.97712581  0.42608940  0.42978013     0.14230
H1728       H  0.94787094  0.42508005  0.32072212     0.14230
H1729       H  0.91879297  0.36620535  0.32072896     0.14230
H1730       H  0.94741185  0.36716701  0.43049588     0.14230
C1731       C  0.91322047  0.46525999  0.34372850    -0.11910
C1732       C  0.92974341  0.46394356  0.37391299     0.10240
C1733       C  0.91227492  0.44568721  0.40356217    -0.11910
C1734       C  0.87865675  0.42902258  0.40311726    -0.11910
C1735       C  0.86188079  0.43029201  0.37294482     0.10240
C1736       C  0.87959715  0.44858159  0.34321093    -0.11910
H1737       H  0.92641502  0.97910355  0.32053295     0.14230
H1738       H  0.92472492  0.44463672  0.42716236     0.14230
H1739       H  0.86584073  0.41565662  0.42669027     0.14230
H1740       H  0.86750081  0.44967689  0.31933627     0.14290
C1741       C  0.56894796  0.45000523  0.40580807    -0.11910
C1742       C  0.56798063  0.43174917  0.37601928     0.10240
C1743       C  0.54980064  0.43031009  0.34590142    -0.11910
C1744       C  0.53300826  0.44676304  0.34560053    -0.11910
C1745       C  0.53414687  0.46491799  0.37534028     0.10240
C1746       C  0.55217523  0.46647335  0.40542942    -0.11910
H1747       H  0.58225638  0.45118247  0.42963217     0.14230
H1748       H  0.54898848  0.41693712  0.32231697     0.14230
H1749       H  0.01931579  0.44558063  0.32209927     0.14230
H1750       H  0.55304654  0.98027633  0.42866153     0.14230
C1751       C  0.66385829  0.42671054  0.41119005    -0.11830
C1752       C  0.68732329  0.44287368  0.42934371    -0.13390
C1753       C  0.93294532  0.05091312  0.40627337    -0.11910
C1754       C  0.93309870  0.06816309  0.37590823     0.10240
C1755       C  0.94957499  0.06786861  0.34507352    -0.11910
C1756       C  0.96558055  0.05067060  0.34463323    -0.11910
C1757       C  0.96524458  0.03350722  0.37494107     0.10240
C1758       C  0.94887478  0.03363991  0.40573889    -0.11910
H1759       H  0.92085697  0.05110029  0.43056124     0.14230
H1760       H  0.94967731  0.08051625  0.32114004     0.14230
H1761       H  0.47813350  0.05059339  0.32067648     0.14230
H1762       H  0.94873650  0.52062201  0.42937678     0.14230
C1763       C  0.83848495  0.07468399  0.41115816    -0.11830
C1764       C  0.81521256  0.05819684  0.42933501    -0.13390
C1765       C  0.81303173  0.25360688  0.17841973    -0.11830
C1766       C  0.83632738  0.26036635  0.16017854    -0.13390
C1767       C  0.73557771  0.07540260  0.16013416    -0.11830
C1768       C  0.74197955  0.05847946  0.17796565    -0.13390
C1769       C  0.68669488  0.24584583  0.17904684    -0.11830
C1770       C  0.66313813  0.23891042  0.16121327    -0.13390
C1771       C  0.75834269  0.42462942  0.15898500    -0.11830
C1772       C  0.75195177  0.44114460  0.17745215    -0.13390
C1773       C  0.58553946  0.04027252  0.09334659    -0.11910
C1774       C  0.56934236  0.03855325  0.12519194     0.10240
C1775       C  0.58688780  0.05651622  0.15519473    -0.11910
C1776       C  0.62045614  0.07358086  0.15434049    -0.11910
C1777       C  0.63663862  0.07339607  0.12334886     0.10240
C1778       C  0.61915762  0.05753574  0.09253290    -0.11910
H1779       H  0.57219785  0.52730936  0.06982041     0.14230
H1780       H  0.57458877  0.05583678  0.17967053     0.14230
H1781       H  0.63382346  0.08628294  0.17801975     0.14230
H1782       H  0.63154980  0.05770035  0.06833524     0.14230
C1783       C  0.53650707  0.08624293  0.15650850    -0.11910
C1784       C  0.53434831  0.06929719  0.12516024     0.10240
C1785       C  0.54927662  0.08631129  0.09377638    -0.11910
C1786       C  0.56595125  0.11988116  0.09367394    -0.11910
C1787       C  0.56818399  0.13676446  0.12504616     0.10240
C1788       C  0.55348167  0.11983419  0.15648558    -0.11910
H1789       H  0.02516525  0.07339454  0.18090194     0.14230
H1790       H  0.54783272  0.07350883  0.06943428     0.14230
H1791       H  0.57731755  0.13271278  0.06927190     0.14230
H1792       H  0.55501172  0.13264407  0.18085695     0.14230
C1793       C  0.93154703  0.38002022  0.15578496    -0.11910
C1794       C  0.93209603  0.36312409  0.12535817     0.10240
C1795       C  0.94997604  0.38051049  0.09522543    -0.11910
C1796       C  0.96706852  0.41406604  0.09545097    -0.11910
C1797       C  0.96616831  0.43075766  0.12575064     0.10240
C1798       C  0.94821067  0.41359165  0.15599458    -0.11910
H1799       H  0.91849214  0.36732652  0.17955599     0.14230
H1800       H  0.95036321  0.36819006  0.07123436     0.14230
H1801       H  0.48058202  0.42706533  0.07200253     0.14230
H1802       H  0.94744418  0.42626415  0.17950829     0.14230
C1803       C  0.90994930  0.47898672  0.10344404    -0.11910
C1804       C  0.92740612  0.46326868  0.11175796     0.10240
C1805       C  0.90710940  0.42926513  0.11172536    -0.11910
C1806       C  0.87395091  0.41387817  0.11609246    -0.11910
C1807       C  0.85814672  0.43120447  0.11485358     0.10240
C1808       C  0.87638650  0.46393764  0.10695644    -0.11910
H1809       H  0.92099369  0.00205833  0.09100174     0.14230
H1810       H  0.91452548  0.41280726  0.10468567     0.14230
H1811       H  0.86059128  0.38794312  0.11881967     0.14230
H1812       H  0.86461851  0.47753137  0.10155279     0.14230
C1813       C  0.53866719  0.41512956  0.14111431    -0.11910
C1814       C  0.57178680  0.43109169  0.13496790     0.10240
C1815       C  0.58858228  0.46454905  0.13616067    -0.11910
C1816       C  0.57213199  0.48122632  0.13915650    -0.11910
C1817       C  0.53786693  0.46576776  0.13873051     0.10240
C1818       C  0.52316016  0.43245886  0.14628017    -0.11910
H1819       H  0.52453138  0.38923542  0.14347708     0.14230
H1820       H  0.61467245  0.47806040  0.13627873     0.14230
H1821       H  0.58793715  0.00573774  0.14535841     0.14230
H1822       H  0.00051481  0.41898491  0.15906047     0.14230
C1823       C  0.68781552  0.44117919  0.07196448    -0.11830
C1824       C  0.66444183  0.42446434  0.08995375    -0.13390
C1825       C  0.93437002  0.05185659  0.15769725    -0.11910
C1826       C  0.93568172  0.07043743  0.12826819     0.10240
C1827       C  0.95401279  0.07287473  0.09822869    -0.11910
C1828       C  0.97007931  0.05582679  0.09699910    -0.11910
C1829       C  0.96738509  0.03570743  0.12564376     0.10240
C1830       C  0.95029740  0.03454833  0.15645117    -0.11910
H1831       H  0.92043120  0.05019828  0.18112435     0.14230
H1832       H  0.95529370  0.08742023  0.07554573     0.14230
H1833       H  0.48328484  0.05697126  0.07311487     0.14230
H1834       H  0.94877724  0.51977524  0.17893647     0.14230
C1835       C  0.84038018  0.07408635  0.09033685    -0.11830
C1836       C  0.81694242  0.05753076  0.07225016    -0.13390
C1837       C  0.94170627  0.25494938  0.07143741    -0.11830
C1838       C  0.92504523  0.26148767  0.08950910    -0.13390
C1839       C  0.57560580  0.23807782  0.08867503    -0.11830
C1840       C  0.55902501  0.24495939  0.07095888    -0.13390
C1841       C  0.57516332  0.23794945  0.41067694    -0.11830
C1842       C  0.55852509  0.24458259  0.42863615    -0.13390
C1843       C  0.92463134  0.26068653  0.41053004    -0.11830
C1844       C  0.94138854  0.25424341  0.42852650    -0.13390
C1845       C  0.74015155  0.16480557  0.08715861    -0.11830
C1846       C  0.74629222  0.18799831  0.06914873    -0.13390
C1847       C  0.73983203  0.16513672  0.40831986    -0.11830
C1848       C  0.74656851  0.18840762  0.42654099    -0.13390
C1849       C  0.75430391  0.33523830  0.08683077    -0.11830
C1850       C  0.74856434  0.31189004  0.06925621    -0.13390
C1851       C  0.75084126  0.31247005  0.42622813    -0.11830
C1852       C  0.75794589  0.33575257  0.40786671    -0.13390
C1853       C  0.94332099  0.18622544  0.18082195    -0.11830
C1854       C  0.92654721  0.16283555  0.16290160    -0.13390
C1855       C  0.92681524  0.16340613  0.34173507    -0.11830
C1856       C  0.94298177  0.18686997  0.32365962    -0.13390
C1857       C  0.55997738  0.31371003  0.32399021    -0.11830
C1858       C  0.57580355  0.33722601  0.34216331    -0.13390
C1859       C  0.57936581  0.33588777  0.16312039    -0.11830
C1860       C  0.56210797  0.31258245  0.18090042    -0.13390
O1861       O  0.95937049  0.23247198  0.78753924    -0.72990
O1862       O  0.51539052  0.29075170  0.71570548    -0.73020
O1863       O  0.95998385  0.23233454  0.71564263    -0.73070
O1864       O  0.51443572  0.29110809  0.78761277    -0.73120
O1865       O  0.54425589  0.26778763  0.78862960    -0.73050
O1866       O  0.98942186  0.20859906  0.71667601    -0.73030
O1867       O  0.54479297  0.26698004  0.71672183    -0.73010
O1868       O  0.98920295  0.20916352  0.78853155    -0.73070
Ni1869     Ni  0.98626593  0.26256000  0.75157684     1.25410
Ni1870     Ni  0.51794823  0.23725207  0.75266399     1.25360
C1871       C  0.96491658  0.21084390  0.79918813     0.89190
C1872       C  0.53959422  0.28878891  0.70511311     0.89120
C1873       C  0.96537670  0.21037243  0.70506869     0.89150
C1874       C  0.53851483  0.28953650  0.79933284     0.89320
O1875       O  0.72067050  0.20842706  0.53372538    -0.72990
O1876       O  0.72196179  0.26587269  0.96170398    -0.73020
O1877       O  0.72105797  0.20880355  0.96178882    -0.73070
O1878       O  0.72108066  0.26531014  0.53379680    -0.73120
O1879       O  0.77483022  0.29173786  0.53441533    -0.73050
O1880       O  0.77480148  0.23486793  0.96240429    -0.73030
O1881       O  0.77570309  0.29193552  0.96240074    -0.73010
O1882       O  0.77442588  0.23485400  0.53441690    -0.73070
Ni1883     Ni  0.71927053  0.23613034  0.49774884     1.25410
Ni1884     Ni  0.77686242  0.26433290  0.49844926     1.25360
C1885       C  0.74727592  0.21172360  0.54507939     0.89190
C1886       C  0.74925297  0.28878357  0.95086306     0.89120
C1887       C  0.74770857  0.21201085  0.95097089     0.89150
C1888       C  0.74802858  0.28832837  0.54517414     0.89320
O1889       O  0.98816699  0.27860980  0.53591011    -0.72990
O1890       O  0.54260171  0.27448267  0.96386709    -0.73020
O1891       O  0.98794619  0.27826962  0.96389054    -0.73070
O1892       O  0.54284359  0.27474906  0.53585853    -0.73120
O1893       O  0.51224824  0.22119173  0.53607564    -0.73050
O1894       O  0.95744376  0.22470361  0.96411455    -0.73030
O1895       O  0.51208452  0.22092214  0.96413700    -0.73010
O1896       O  0.95761633  0.22505551  0.53613475    -0.73070
Ni1897     Ni  0.51644584  0.27845499  0.99988156     1.25410
Ni1898     Ni  0.98378710  0.22105580  0.00013350     1.25360
C1899       C  0.96359579  0.25264807  0.54712887     0.89190
C1900       C  0.53663477  0.24689034  0.95290177     0.89120
C1901       C  0.96336889  0.25219164  0.95286979     0.89150
C1902       C  0.53692972  0.24721709  0.54697901     0.89320
C1903       C  0.87050208  0.08917783  0.60938145     0.04570
C1904       C  0.88272815  0.11902518  0.62669582    -0.11580
C1905       C  0.91239814  0.13245498  0.64476839     0.02070
C1906       C  0.92932512  0.11609858  0.64574911    -0.10110
C1907       C  0.91723333  0.08672634  0.62831255     0.04560
C1908       C  0.88798805  0.07333542  0.60999418    -0.09530
H1909       H  0.86944345  0.13157243  0.62607635     0.10160
H1910       H  0.95219098  0.12640605  0.65972531     0.07680
H1911       H  0.87883640  0.05050079  0.59631199     0.07530
C1912       C  0.63464149  0.40949337  0.60945975     0.04570
C1913       C  0.62247530  0.37944574  0.62609323    -0.11580
C1914       C  0.59367548  0.36652795  0.64553651     0.02070
C1915       C  0.57775045  0.38370182  0.64885452    -0.10110
C1916       C  0.58919406  0.41325664  0.63154906     0.04560
C1917       C  0.61770305  0.42587235  0.61158416    -0.09530
H1918       H  0.63524279  0.36643681  0.62406678     0.10160
H1919       H  0.55654252  0.37390405  0.66561499     0.07680
H1920       H  0.62689007  0.44852863  0.59759165     0.07530
C1921       C  0.98274768  0.01604985  0.62307090     0.03730
C1922       C  0.96490890  0.48174471  0.61941291     0.03730
C1923       C  0.98338229  0.46586144  0.62568254     0.03730
C1924       C  0.51823950  0.48323251  0.63143081     0.03730
C1925       C  0.53407006  0.01744654  0.62751251     0.03730
C1926       C  0.51655018  0.03330377  0.62522719     0.03730
C1927       C  0.77307925  0.40997000  0.63894249     0.04570
C1928       C  0.75487189  0.37930639  0.62314759    -0.11580
C1929       C  0.77074827  0.36636363  0.60396541     0.02070
C1930       C  0.80418821  0.38399749  0.60065193    -0.10110
C1931       C  0.82254183  0.41410304  0.61702041     0.04560
C1932       C  0.80675791  0.42707380  0.63595277    -0.09530
H1933       H  0.72888151  0.36583626  0.62568570     0.10160
H1934       H  0.81597661  0.37407959  0.58495948     0.07680
H1935       H  0.82072524  0.45030263  0.64886369     0.07530
C1936       C  0.59014976  0.22241043  0.60712837     0.04570
C1937       C  0.57356729  0.18874554  0.60688521    -0.11580
C1938       C  0.58595428  0.17209082  0.62498848     0.02070
C1939       C  0.61532848  0.18916437  0.64301904    -0.10110
C1940       C  0.63263659  0.22283389  0.64270904     0.04560
C1941       C  0.61997759  0.23968018  0.62490146    -0.09530
H1942       H  0.55071277  0.17539775  0.59298379     0.10160
H1943       H  0.62490740  0.17613668  0.65695128     0.07680
H1944       H  0.63308621  0.26574042  0.62488513     0.07530
C1945       C  0.72102835  0.09103606  0.64139312     0.04570
C1946       C  0.68735952  0.07578164  0.64147082    -0.11580
C1947       C  0.67182971  0.08941453  0.62337093     0.02070
C1948       C  0.68985560  0.11848440  0.60541336    -0.10110
C1949       C  0.72346706  0.13446883  0.60573026     0.04560
C1950       C  0.73934938  0.12073084  0.62359546    -0.09530
H1951       H  0.67313243  0.05308897  0.65534938     0.10160
H1952       H  0.67757639  0.12890759  0.59151740     0.07680
H1953       H  0.76541219  0.13290272  0.62367204     0.07530
C1954       C  0.91028272  0.27695293  0.60800655     0.04570
C1955       C  0.92708380  0.31059055  0.60843426    -0.11580
C1956       C  0.91406458  0.32744723  0.62503845     0.02070
C1957       C  0.88380292  0.31005548  0.64142796    -0.10110
C1958       C  0.86682519  0.27640137  0.64161654     0.04560
C1959       C  0.87999784  0.25961568  0.62475840    -0.09530
H1960       H  0.95064991  0.32366033  0.59606315     0.10160
H1961       H  0.87318582  0.32271809  0.65395113     0.07680
H1962       H  0.86694271  0.23355926  0.62469935     0.07530
C1963       C  0.86886413  0.08936877  0.89292344     0.04570
C1964       C  0.88214694  0.11959816  0.87649357    -0.11580
C1965       C  0.91236451  0.13297717  0.85990861     0.02070
C1966       C  0.92903626  0.11627950  0.85995362    -0.10110
C1967       C  0.91574207  0.08604022  0.87624198     0.04560
C1968       C  0.88555626  0.07275391  0.89262796    -0.09530
H1969       H  0.86918307  0.13247816  0.87659287     0.10160
H1970       H  0.95253338  0.12701681  0.84743023     0.07680
H1971       H  0.87475361  0.04918511  0.90493074     0.07530
C1972       C  0.63339367  0.41181299  0.89292504     0.04570
C1973       C  0.62029728  0.38149715  0.87671586    -0.11580
C1974       C  0.58995263  0.36768116  0.86030510     0.02070
C1975       C  0.57288371  0.38397706  0.86038886    -0.10110
C1976       C  0.58596088  0.41438320  0.87631238     0.04560
C1977       C  0.61638532  0.42815005  0.89244587    -0.09530
H1978       H  0.63351189  0.36886772  0.87685922     0.10160
H1979       H  0.54922248  0.37274834  0.84815565     0.07680
H1980       H  0.62710707  0.45181878  0.90448588     0.07530
C1981       C  0.98270956  0.01583019  0.87467647     0.03730
C1982       C  0.96549100  0.48191705  0.87452094     0.03730
C1983       C  0.98240462  0.46521054  0.87492188     0.03730
C1984       C  0.51639968  0.48242442  0.87498718     0.03730
C1985       C  0.53350219  0.01633740  0.87478314     0.03730
C1986       C  0.51664426  0.03304168  0.87486650     0.03730
C1987       C  0.72298017  0.09111537  0.85643041     0.04570
C1988       C  0.74040471  0.12134024  0.87320538    -0.11580
C1989       C  0.72365684  0.13467241  0.88976824     0.02070
C1990       C  0.68993850  0.11785291  0.88934480    -0.10110
C1991       C  0.67250334  0.08767377  0.87282287     0.04560
C1992       C  0.68931216  0.07454265  0.85642466    -0.09530
H1993       H  0.76649649  0.13421773  0.87340724     0.10160
H1994       H  0.67724749  0.12845914  0.90183650     0.07680
H1995       H  0.67615621  0.05102727  0.84396630     0.07530
C1996       C  0.58992942  0.22241910  0.89235855     0.04570
C1997       C  0.62009014  0.23974369  0.87535012    -0.11580
C1998       C  0.63324182  0.22293940  0.85850983     0.02070
C1999       C  0.61632508  0.18929516  0.85883053    -0.10110
C2000       C  0.58627011  0.17193621  0.87560965     0.04560
C2001       C  0.57328886  0.18876488  0.89233707    -0.09530
H2002       H  0.63306742  0.26580033  0.87520731     0.10160
H2003       H  0.62682220  0.17657963  0.84615159     0.07680
H2004       H  0.54988734  0.17563381  0.90507551     0.07530
C2005       C  0.77588424  0.41025179  0.85626028     0.04570
C2006       C  0.75813266  0.37999404  0.87286373    -0.11580
C2007       C  0.77450450  0.36619151  0.88929647     0.02070
C2008       C  0.80821141  0.38252480  0.88883024    -0.10110
C2009       C  0.82608754  0.41281622  0.87263474     0.04560
C2010       C  0.80958529  0.42645915  0.85644492    -0.09530
H2011       H  0.73204854  0.36743296  0.87302653     0.10160
H2012       H  0.82052485  0.37140845  0.90106763     0.07680
H2013       H  0.82297137  0.45003414  0.84421916     0.07530
C2014       C  0.90972537  0.27609274  0.89229580     0.04570
C2015       C  0.92624786  0.30973369  0.89232825    -0.11580
C2016       C  0.91305962  0.32644756  0.87577297     0.02070
C2017       C  0.88293819  0.30899001  0.85910975    -0.10110
C2018       C  0.86619320  0.27535943  0.85869029     0.04560
C2019       C  0.87952475  0.25865927  0.87536723    -0.09530
H2020       H  0.94970995  0.32293605  0.90497744     0.10160
H2021       H  0.87227040  0.32160928  0.84655977     0.07680
H2022       H  0.86665898  0.23260476  0.87515704     0.07530
O2023       O  0.77621472  0.48784800  0.71233636    -0.72990
O2024       O  0.77362146  0.04287161  0.78447954    -0.73020
O2025       O  0.77732525  0.48827619  0.78429157    -0.73070
O2026       O  0.77234869  0.04246966  0.71249308    -0.73120
O2027       O  0.71872842  0.01199476  0.71346664    -0.73050
O2028       O  0.72369516  0.45784277  0.78529403    -0.73030
O2029       O  0.71997891  0.01248082  0.78546094    -0.73010
O2030       O  0.72258480  0.45734292  0.71328183    -0.73070
Ni2031     Ni  0.77678643  0.01641396  0.74834902     1.25410
Ni2032     Ni  0.71931930  0.48385032  0.74939321     1.25360
C2033       C  0.75001658  0.46319268  0.70173820     0.89190
C2034       C  0.74624883  0.03705690  0.79611009     0.89120
C2035       C  0.75144429  0.46383421  0.79589635     0.89150
C2036       C  0.74458431  0.03653728  0.70197485     0.89320
O2037       O  0.71129246  0.48791178  0.53748051    -0.72990
O2038       O  0.77006849  0.04264442  0.96561467    -0.73020
O2039       O  0.71078700  0.48852872  0.96563834    -0.73070
O2040       O  0.77078181  0.04215159  0.53749207    -0.73120
O2041       O  0.79309719  0.01143329  0.53648085    -0.73050
O2042       O  0.73308470  0.45778887  0.96459997    -0.73030
O2043       O  0.79242406  0.01195131  0.96458430    -0.73010
O2044       O  0.73358690  0.45716805  0.53647665    -0.73070
Ni2045     Ni  0.73990442  0.01637688  0.50161952     1.25410
Ni2046     Ni  0.76388731  0.48350678  0.00053431     1.25360
C2047       C  0.71225643  0.46319780  0.54797596     0.89190
C2048       C  0.79124682  0.03650639  0.95389809     0.89120
C2049       C  0.71172742  0.46412397  0.95392468     0.89150
C2050       C  0.79226635  0.03594755  0.54804381     0.89320
O2051       O  0.73337812  0.27483566  0.78630612    -0.72990
O2052       O  0.79141833  0.27779580  0.71419531    -0.73020
O2053       O  0.73334787  0.27508451  0.71427330    -0.73070
O2054       O  0.79132772  0.27741625  0.78621368    -0.73120
O2055       O  0.76637776  0.22379512  0.78594311    -0.73050
O2056       O  0.70853117  0.22147210  0.71399703    -0.73030
O2057       O  0.76657774  0.22418910  0.71386240    -0.73010
O2058       O  0.70844250  0.22121958  0.78593841    -0.73070
Ni2059     Ni  0.76330756  0.27820846  0.75024941     1.25410
Ni2060     Ni  0.73656251  0.22075357  0.74991382     1.25360
C2061       C  0.71089844  0.24741334  0.79725559     0.89190
C2062       C  0.78902640  0.25163448  0.70288341     0.89120
C2063       C  0.71087763  0.24771212  0.70310946     0.89150
C2064       C  0.78879469  0.25111457  0.79723680     0.89320
C2065       C  0.81258622  0.25274570  0.82174017    -0.11830
C2066       C  0.83577239  0.25928656  0.84005481    -0.13390
C2067       C  0.75401321  0.44210360  0.82018401    -0.11830
C2068       C  0.76067882  0.42545966  0.83810064    -0.13390
C2069       C  0.68693868  0.24554379  0.82167573    -0.11830
C2070       C  0.66368369  0.23892600  0.83989412    -0.13390
C2071       C  0.74455640  0.05920355  0.82042091    -0.11830
C2072       C  0.73837388  0.07615437  0.83834631    -0.13390
C2073       C  0.58571360  0.03473239  0.84347445    -0.11910
C2074       C  0.56913949  0.03448489  0.87430475     0.10240
C2075       C  0.58640236  0.05184801  0.90452128    -0.11910
C2076       C  0.61998385  0.06925012  0.90398913    -0.11910
C2077       C  0.63681540  0.06961296  0.87315215     0.10240
C2078       C  0.61930917  0.05220643  0.84285379    -0.11910
H2079       H  0.57258484  0.52158595  0.81987718     0.14230
H2080       H  0.57381547  0.05172304  0.92853465     0.14230
H2081       H  0.63277032  0.08197665  0.92790581     0.14230
H2082       H  0.63156933  0.05239098  0.81855185     0.14230
C2083       C  0.53512066  0.08537417  0.90598127    -0.11910
C2084       C  0.53456538  0.06867259  0.87511182     0.10240
C2085       C  0.55095836  0.08579769  0.84444190    -0.11910
C2086       C  0.56772813  0.11934922  0.84458582    -0.11910
C2087       C  0.56842263  0.13629260  0.87548090     0.10240
C2088       C  0.55194276  0.11893863  0.90619993    -0.11910
H2089       H  0.02266042  0.07236813  0.92989681     0.14230
H2090       H  0.55053775  0.07312669  0.82037550     0.14230
H2091       H  0.57977361  0.13202618  0.82037016     0.14230
H2092       H  0.55241027  0.13130779  0.93052756     0.14230
C2093       C  0.96437318  0.41302453  0.90598223    -0.11910
C2094       C  0.96451375  0.42963549  0.87522330     0.10240
C2095       C  0.94775910  0.41246036  0.84470114    -0.11910
C2096       C  0.93107458  0.37892664  0.84486032    -0.11910
C2097       C  0.93078189  0.36206601  0.87564876     0.10240
C2098       C  0.94758064  0.37947581  0.90624174    -0.11910
H2099       H  0.97712582  0.42608939  0.92978013     0.14230
H2100       H  0.94787090  0.42508003  0.82072214     0.14230
H2101       H  0.91879293  0.36620533  0.82072898     0.14230
H2102       H  0.94741185  0.36716700  0.93049588     0.14230
C2103       C  0.91322046  0.46525999  0.84372851    -0.11910
C2104       C  0.92974340  0.46394355  0.87391299     0.10240
C2105       C  0.91227491  0.44568719  0.90356216    -0.11910
C2106       C  0.87865673  0.42902256  0.90311725    -0.11910
C2107       C  0.86188078  0.43029201  0.87294481     0.10240
C2108       C  0.87959714  0.44858159  0.84321093    -0.11910
H2109       H  0.92641500  0.97910360  0.82053299     0.14230
H2110       H  0.92472490  0.44463669  0.92716234     0.14230
H2111       H  0.86584071  0.41565659  0.92669025     0.14230
H2112       H  0.86750080  0.44967691  0.81933628     0.14290
C2113       C  0.56894788  0.45000516  0.90580812    -0.11910
C2114       C  0.56798060  0.43174915  0.87601930     0.10240
C2115       C  0.54980067  0.43031012  0.84590141    -0.11910
C2116       C  0.53300830  0.44676308  0.84560052    -0.11910
C2117       C  0.53414686  0.46491798  0.87534029     0.10240
C2118       C  0.55217515  0.46647329  0.90542946    -0.11910
H2119       H  0.58225626  0.45118236  0.92963224     0.14230
H2120       H  0.54898855  0.41693719  0.82231695     0.14230
H2121       H  0.01931575  0.44558058  0.82209930     0.14230
H2122       H  0.55304673  0.98027649  0.92866145     0.14230
C2123       C  0.66385829  0.42671058  0.91119007    -0.11830
C2124       C  0.68732329  0.44287373  0.92934371    -0.13390
C2125       C  0.93294531  0.05091314  0.90627338    -0.11910
C2126       C  0.93309872  0.06816312  0.87590824     0.10240
C2127       C  0.94957501  0.06786863  0.84507353    -0.11910
C2128       C  0.96558054  0.05067060  0.84463324    -0.11910
C2129       C  0.96524457  0.03350722  0.87494108     0.10240
C2130       C  0.94887476  0.03363991  0.90573889    -0.11910
H2131       H  0.92085696  0.05110031  0.93056124     0.14230
H2132       H  0.94967734  0.08051628  0.82114005     0.14230
H2133       H  0.47813351  0.05059341  0.82067650     0.14230
H2134       H  0.94873648  0.52062199  0.92937679     0.14230
C2135       C  0.83848500  0.07468416  0.91115802    -0.11830
C2136       C  0.81521257  0.05819704  0.92933483    -0.13390
C2137       C  0.81303171  0.25360682  0.67841978    -0.11830
C2138       C  0.83632735  0.26036627  0.66017859    -0.13390
C2139       C  0.73557781  0.07540262  0.66013411    -0.11830
C2140       C  0.74197961  0.05847947  0.67796564    -0.13390
C2141       C  0.68669504  0.24584607  0.67904685    -0.11830
C2142       C  0.66313835  0.23891077  0.66121323    -0.13390
C2143       C  0.75834251  0.42462937  0.65898496    -0.11830
C2144       C  0.75195162  0.44114455  0.67745214    -0.13390
C2145       C  0.58553955  0.04027285  0.59334638    -0.11910
C2146       C  0.56934250  0.03855339  0.62519184     0.10240
C2147       C  0.58688796  0.05651606  0.65519476    -0.11910
C2148       C  0.62045630  0.07358065  0.65434048    -0.11910
C2149       C  0.63663873  0.07339602  0.62334873     0.10240
C2150       C  0.61915770  0.05753594  0.59253270    -0.11910
H2151       H  0.57219786  0.52730997  0.56982027     0.14230
H2152       H  0.57458897  0.05583649  0.67967062     0.14230
H2153       H  0.63382364  0.08628256  0.67801979     0.14230
H2154       H  0.63154986  0.05770068  0.56833496     0.14230
C2155       C  0.53650809  0.08624339  0.65650837    -0.11910
C2156       C  0.53434893  0.06929765  0.62515998     0.10240
C2157       C  0.54927679  0.08631170  0.59377596    -0.11910
C2158       C  0.56595138  0.11988157  0.59367350    -0.11910
C2159       C  0.56818448  0.13676486  0.62504585     0.10240
C2160       C  0.55348261  0.11983462  0.65648542    -0.11910
H2161       H  0.02516517  0.07339451  0.68090191     0.14230
H2162       H  0.54783255  0.07350922  0.56943376     0.14230
H2163       H  0.57731734  0.13271317  0.56927135     0.14230
H2164       H  0.55501296  0.13264451  0.68085688     0.14230
C2165       C  0.93154699  0.38002014  0.65578504    -0.11910
C2166       C  0.93209583  0.36312403  0.62535813     0.10240
C2167       C  0.94997558  0.38051042  0.59522527    -0.11910
C2168       C  0.96706799  0.41406597  0.59545078    -0.11910
C2169       C  0.96616801  0.43075758  0.62575061     0.10240
C2170       C  0.94821061  0.41359157  0.65599468    -0.11910
H2171       H  0.91849227  0.36732642  0.67955613     0.14230
H2172       H  0.95036261  0.36818998  0.57123415     0.14230
H2173       H  0.48058235  0.42706536  0.57200267     0.14230
H2174       H  0.94744432  0.42626406  0.67950849     0.14230
C2175       C  0.90994923  0.47898674  0.60344396    -0.11910
C2176       C  0.92740598  0.46326866  0.61175805     0.10240
C2177       C  0.90710916  0.42926512  0.61172570    -0.11910
C2178       C  0.87395070  0.41387825  0.61609274    -0.11910
C2179       C  0.85814658  0.43120459  0.61485357     0.10240
C2180       C  0.87638642  0.46393773  0.60695628    -0.11910
H2181       H  0.92099371  0.00205830  0.59100160     0.14230
H2182       H  0.91452509  0.41280710  0.60468619     0.14230
H2183       H  0.86059101  0.38794321  0.61882011     0.14230
H2184       H  0.86461848  0.47753148  0.60155248     0.14230
C2185       C  0.53866711  0.41512961  0.64111487    -0.11910
C2186       C  0.57178665  0.43109158  0.63496790     0.10240
C2187       C  0.58858222  0.46454895  0.63616016    -0.11910
C2188       C  0.57213207  0.48122634  0.63915587    -0.11910
C2189       C  0.53786701  0.46576788  0.63873048     0.10240
C2190       C  0.52316023  0.43245909  0.64628072    -0.11910
H2191       H  0.52453124  0.38923551  0.64347804     0.14230
H2192       H  0.61467238  0.47806025  0.63627783     0.14230
H2193       H  0.58793726  0.00573761  0.64535663     0.14230
H2194       H  0.00051430  0.41898363  0.65905840     0.14230
C2195       C  0.68781543  0.44117913  0.57196446    -0.11830
C2196       C  0.66444170  0.42446425  0.58995368    -0.13390
C2197       C  0.93436996  0.05185656  0.65769720    -0.11910
C2198       C  0.93568168  0.07043740  0.62826814     0.10240
C2199       C  0.95401276  0.07287471  0.59822866    -0.11910
C2200       C  0.97007929  0.05582678  0.59699910    -0.11910
C2201       C  0.96738506  0.03570741  0.62564375     0.10240
C2202       C  0.95029734  0.03454830  0.65645114    -0.11910
H2203       H  0.92043113  0.05019824  0.68112429     0.14230
H2204       H  0.95529369  0.08742022  0.57554570     0.14230
H2205       H  0.48328402  0.05697025  0.57311323     0.14230
H2206       H  0.94877715  0.51977518  0.67893645     0.14230
C2207       C  0.84038009  0.07408633  0.59033692    -0.11830
C2208       C  0.81694227  0.05753076  0.57225029    -0.13390
C2209       C  0.94170626  0.25494940  0.57143740    -0.11830
C2210       C  0.92504522  0.26148769  0.58950908    -0.13390
C2211       C  0.57560597  0.23807808  0.58867497    -0.11830
C2212       C  0.55902510  0.24495956  0.57095884    -0.13390
C2213       C  0.57516331  0.23794943  0.91067695    -0.11830
C2214       C  0.55852508  0.24458256  0.92863617    -0.13390
C2215       C  0.92463135  0.26068653  0.91053005    -0.11830
C2216       C  0.94138855  0.25424340  0.92852650    -0.13390
C2217       C  0.74015161  0.16480557  0.58715857    -0.11830
C2218       C  0.74629224  0.18799832  0.56914871    -0.13390
C2219       C  0.73983203  0.16513675  0.90831983    -0.11830
C2220       C  0.74656852  0.18840764  0.92654098    -0.13390
C2221       C  0.75430387  0.33523831  0.58683073    -0.11830
C2222       C  0.74856433  0.31189005  0.56925620    -0.13390
C2223       C  0.75084127  0.31247005  0.92622814    -0.11830
C2224       C  0.75794588  0.33575257  0.90786671    -0.13390
C2225       C  0.94332101  0.18622547  0.68082188    -0.11830
C2226       C  0.92654722  0.16283556  0.66290156    -0.13390
C2227       C  0.92681536  0.16340620  0.84173501    -0.11830
C2228       C  0.94298188  0.18687003  0.82365954    -0.13390
C2229       C  0.55997743  0.31371001  0.82399029    -0.11830
C2230       C  0.57580358  0.33722601  0.84216337    -0.13390
C2231       C  0.57936577  0.33588772  0.66312043    -0.11830
C2232       C  0.56210794  0.31258243  0.68090050    -0.13390
O2233       O  0.95937211  0.73247685  0.28753880    -0.72990
O2234       O  0.51539037  0.79076765  0.21570650    -0.73020
O2235       O  0.95998217  0.73234847  0.21564209    -0.73070
O2236       O  0.51443764  0.79111340  0.28761507    -0.73120
O2237       O  0.54425776  0.76779279  0.28862165    -0.73050
O2238       O  0.98941970  0.70861238  0.21666457    -0.73030
O2239       O  0.54479290  0.76699639  0.21671201    -0.73010
O2240       O  0.98920401  0.70916792  0.28852076    -0.73070
Ni2241     Ni  0.98626659  0.76257003  0.25157770     1.25410
Ni2242     Ni  0.51794844  0.73726175  0.25265338     1.25360
C2243       C  0.96491769  0.71084666  0.29918233     0.89190
C2244       C  0.53959526  0.78880845  0.20510970     0.89120
C2245       C  0.96537300  0.71038628  0.20506367     0.89150
C2246       C  0.53851703  0.78954028  0.29933088     0.89320
O2247       O  0.72068583  0.70844200  0.03373893    -0.72990
O2248       O  0.72196850  0.76588065  0.46171396    -0.73020
O2249       O  0.72105982  0.70880834  0.46180179    -0.73070
O2250       O  0.72110327  0.76533123  0.03380783    -0.73120
O2251       O  0.77485252  0.79175381  0.03441337    -0.73050
O2252       O  0.77480316  0.73486984  0.46240477    -0.73030
O2253       O  0.77570979  0.79194023  0.46239840    -0.73010
O2254       O  0.77444117  0.73486493  0.03441727    -0.73070
Ni2255     Ni  0.71928201  0.73614259  0.99776149     1.25410
Ni2256     Ni  0.77687363  0.76434094  0.99844817     1.25360
C2257       C  0.74729245  0.71173648  0.04508549     0.89190
C2258       C  0.74925833  0.78878876  0.45086620     0.89120
C2259       C  0.74770768  0.71201218  0.45097773     0.89150
C2260       C  0.74805481  0.78835112  0.04517676     0.89320
O2261       O  0.98816561  0.77861387  0.03590487    -0.72990
O2262       O  0.54260278  0.77448693  0.46386491    -0.73020
O2263       O  0.98794482  0.77826883  0.46388613    -0.73070
O2264       O  0.54284580  0.77476019  0.03585581    -0.73120
O2265       O  0.51225567  0.72120237  0.03607829    -0.73050
O2266       O  0.95744552  0.72470252  0.46411527    -0.73030
O2267       O  0.51208896  0.72092610  0.46413969    -0.73010
O2268       O  0.95761961  0.72505915  0.03613493    -0.73070
Ni2269     Ni  0.51644584  0.77845958  0.49987782     1.25410
Ni2270     Ni  0.98379147  0.72105998  0.50013531     1.25360
C2271       C  0.96359589  0.75265162  0.04712516     0.89190
C2272       C  0.53663758  0.74689441  0.45290231     0.89120
C2273       C  0.96336843  0.75218919  0.45286790     0.89150
C2274       C  0.53693562  0.74723047  0.04697919     0.89320
C2275       C  0.87050765  0.58918853  0.10937432     0.04570
C2276       C  0.88272278  0.61903185  0.12669529    -0.11580
C2277       C  0.91239503  0.63247101  0.14476472     0.02070
C2278       C  0.92933434  0.61612743  0.14573826    -0.10110
C2279       C  0.91725640  0.58676161  0.12829249     0.04560
C2280       C  0.88800902  0.57336126  0.10997543    -0.09530
H2281       H  0.86942777  0.63156874  0.12608364     0.10160
H2282       H  0.95220081  0.62644143  0.15971436     0.07680
H2283       H  0.87886600  0.55052967  0.09628930     0.07530
C2284       C  0.63473444  0.90954252  0.10951712     0.04570
C2285       C  0.62253157  0.87947599  0.12612304    -0.11580
C2286       C  0.59373341  0.86657642  0.14556756     0.02070
C2287       C  0.57784127  0.88378042  0.14888994    -0.10110
C2288       C  0.58931791  0.91334584  0.13159315     0.04560
C2289       C  0.61783838  0.92596322  0.11166661    -0.09530
H2290       H  0.63527011  0.86643981  0.12407433     0.10160
H2291       H  0.55662091  0.87399508  0.16563254     0.07680
H2292       H  0.62705002  0.94864143  0.09771159     0.07530
C2293       C  0.98277146  0.51609358  0.12305463     0.03730
C2294       C  0.96488716  0.98170200  0.11944314     0.03730
C2295       C  0.98335897  0.96582215  0.12570981     0.03730
C2296       C  0.51821673  0.98318219  0.13144637     0.03730
C2297       C  0.53408805  0.51749420  0.12750322     0.03730
C2298       C  0.51656902  0.53334594  0.12521544     0.03730
C2299       C  0.77306110  0.91003289  0.13885935     0.04570
C2300       C  0.75487138  0.87935253  0.12309383    -0.11580
C2301       C  0.77076189  0.86643053  0.10390036     0.02070
C2302       C  0.80419819  0.88410005  0.10055874    -0.10110
C2303       C  0.82253049  0.91422135  0.11690210     0.04560
C2304       C  0.80673671  0.92717840  0.13582878    -0.09530
H2305       H  0.72888446  0.86585178  0.12566885     0.10160
H2306       H  0.81601088  0.87419000  0.08489386     0.07680
H2307       H  0.82069679  0.95041580  0.14872457     0.07530
C2308       C  0.59016712  0.72244207  0.10712958     0.04570
C2309       C  0.57358558  0.68877796  0.10688574    -0.11580
C2310       C  0.58597245  0.67212437  0.12499006     0.02070
C2311       C  0.61534534  0.68919672  0.14302155    -0.10110
C2312       C  0.63265327  0.72286549  0.14271119     0.04560
C2313       C  0.61999476  0.73971222  0.12490327    -0.09530
H2314       H  0.55073134  0.67542972  0.09298366     0.10160
H2315       H  0.62492387  0.67616861  0.15695384     0.07680
H2316       H  0.63310323  0.76577240  0.12488715     0.07530
C2317       C  0.72103301  0.59104258  0.14139567     0.04570
C2318       C  0.68736466  0.57580077  0.14148255    -0.11580
C2319       C  0.67184084  0.58944111  0.12338321     0.02070
C2320       C  0.68987297  0.61850521  0.10541734    -0.10110
C2321       C  0.72348350  0.63447982  0.10573002     0.04560
C2322       C  0.73935961  0.62073437  0.12359341    -0.09530
H2323       H  0.67313335  0.55311101  0.15536502     0.10160
H2324       H  0.67759912  0.62893446  0.09152205     0.07680
H2325       H  0.76542198  0.63289834  0.12366521     0.07530
C2326       C  0.91027694  0.77694762  0.10800610     0.04570
C2327       C  0.92707357  0.81058508  0.10843657    -0.11580
C2328       C  0.91405958  0.82743315  0.12506894     0.02070
C2329       C  0.88380909  0.81004124  0.14147594    -0.10110
C2330       C  0.86682755  0.77638776  0.14164395     0.04560
C2331       C  0.87999566  0.75960589  0.12476602    -0.09530
H2332       H  0.95063138  0.82366409  0.09604662     0.10160
H2333       H  0.87320455  0.82270608  0.15402359     0.07680
H2334       H  0.86693985  0.73354950  0.12469762     0.07530
C2335       C  0.86886320  0.58936737  0.39292879     0.04570
C2336       C  0.88214417  0.61959687  0.37649657    -0.11580
C2337       C  0.91236135  0.63297673  0.35990752     0.02070
C2338       C  0.92903364  0.61627956  0.35995226    -0.10110
C2339       C  0.91574143  0.58604110  0.37624210     0.04560
C2340       C  0.88555672  0.57275414  0.39263038    -0.09530
H2341       H  0.86917959  0.63247608  0.37659739     0.10160
H2342       H  0.95253009  0.62701679  0.34742729     0.07680
H2343       H  0.87475601  0.54918569  0.40493375     0.07530
C2344       C  0.63339690  0.91181235  0.39292534     0.04570
C2345       C  0.62029995  0.88149670  0.37671597    -0.11580
C2346       C  0.58995510  0.86768097  0.36030624     0.02070
C2347       C  0.57288629  0.88397696  0.36039073    -0.10110
C2348       C  0.58596387  0.91438323  0.37631413     0.04560
C2349       C  0.61638865  0.92814978  0.39244731    -0.09530
H2350       H  0.63351447  0.86886718  0.37685824     0.10160
H2351       H  0.54922489  0.87274825  0.34815794     0.07680
H2352       H  0.62711080  0.95181844  0.40448750     0.07530
C2353       C  0.98270965  0.51583226  0.37467616     0.03730
C2354       C  0.96549111  0.98191500  0.37452051     0.03730
C2355       C  0.98240486  0.96520849  0.37492201     0.03730
C2356       C  0.51640004  0.98242254  0.37498820     0.03730
C2357       C  0.53350198  0.51633920  0.37478208     0.03730
C2358       C  0.51664435  0.53304372  0.37486568     0.03730
C2359       C  0.72297904  0.59111523  0.35642720     0.04570
C2360       C  0.74040395  0.62133987  0.37320463    -0.11580
C2361       C  0.72365591  0.63467156  0.38977023     0.02070
C2362       C  0.68993768  0.61785179  0.38934617    -0.10110
C2363       C  0.67250266  0.58767344  0.37282273     0.04560
C2364       C  0.68931113  0.57454286  0.35642273    -0.09530
H2365       H  0.76649569  0.63421740  0.37340614     0.10160
H2366       H  0.67724640  0.62845730  0.40183887     0.07680
H2367       H  0.67615475  0.55102795  0.34396337     0.07530
C2368       C  0.58993056  0.72242133  0.39235971     0.04570
C2369       C  0.62009130  0.73974620  0.37535195    -0.11580
C2370       C  0.63324320  0.72294245  0.35851145     0.02070
C2371       C  0.61632659  0.68929808  0.35883111    -0.10110
C2372       C  0.58627140  0.67193866  0.37560993     0.04560
C2373       C  0.57328994  0.68876709  0.39233761    -0.09530
H2374       H  0.63306855  0.76580286  0.37520984     0.10160
H2375       H  0.62682399  0.67658297  0.34615184     0.07680
H2376       H  0.54988832  0.67563589  0.40507578     0.07530
C2377       C  0.77588386  0.91025239  0.35625937     0.04570
C2378       C  0.75813262  0.87999501  0.37286360    -0.11580
C2379       C  0.77450473  0.86619279  0.38929623     0.02070
C2380       C  0.80821155  0.88252596  0.38882932    -0.10110
C2381       C  0.82608754  0.91281719  0.37263348     0.04560
C2382       C  0.80958505  0.92645988  0.35644341    -0.09530
H2383       H  0.73204851  0.86743395  0.37302707     0.10160
H2384       H  0.82052505  0.87140965  0.40106666     0.07680
H2385       H  0.82297097  0.95003464  0.34421713     0.07530
C2386       C  0.90972490  0.77608992  0.39229610     0.04570
C2387       C  0.92624759  0.80973096  0.39232843    -0.11580
C2388       C  0.91305916  0.82644488  0.37577346     0.02070
C2389       C  0.88293730  0.80898704  0.35911090    -0.10110
C2390       C  0.86619218  0.77535631  0.35869235     0.04560
C2391       C  0.87952404  0.75865647  0.37536869    -0.09530
H2392       H  0.94970989  0.82293326  0.40497716     0.10160
H2393       H  0.87226921  0.82160608  0.34656107     0.07680
H2394       H  0.86665817  0.73260194  0.37515898     0.07530
O2395       O  0.77620150  0.98784780  0.21233594    -0.72990
O2396       O  0.77361897  0.54287047  0.28447274    -0.73020
O2397       O  0.77732123  0.98827413  0.28429142    -0.73070
O2398       O  0.77235164  0.54246694  0.21248574    -0.73120
O2399       O  0.71873196  0.51198585  0.21345296    -0.73050
O2400       O  0.72369085  0.95784463  0.28529943    -0.73030
O2401       O  0.71997683  0.51247602  0.28544799    -0.73010
O2402       O  0.72257074  0.95734933  0.21328738    -0.73070
Ni2403     Ni  0.77679068  0.51641385  0.24834541     1.25410
Ni2404     Ni  0.71931439  0.98385586  0.24940328     1.25360
C2405       C  0.74999944  0.96319815  0.20173615     0.89190
C2406       C  0.74624471  0.53705380  0.29609989     0.89120
C2407       C  0.75144025  0.96383348  0.29589791     0.89150
C2408       C  0.74458678  0.53653158  0.20196464     0.89320
O2409       O  0.71131285  0.98790325  0.03747671    -0.72990
O2410       O  0.77006910  0.54264297  0.46562458    -0.73020
O2411       O  0.71079261  0.98852297  0.46563517    -0.73070
O2412       O  0.77077427  0.54215262  0.03750247    -0.73120
O2413       O  0.79307597  0.51142204  0.03650347    -0.73050
O2414       O  0.73309952  0.95779149  0.46458554    -0.73030
O2415       O  0.79241559  0.51194178  0.46460632    -0.73010
O2416       O  0.73362225  0.95717262  0.03646070    -0.73070
Ni2417     Ni  0.73989699  0.51638069  0.00162641     1.25410
Ni2418     Ni  0.76390738  0.98351402  0.50051465     1.25360
C2419       C  0.71229236  0.96319731  0.04797078     0.89190
C2420       C  0.79124560  0.53649981  0.45391413     0.89120
C2421       C  0.71173651  0.96412145  0.45391743     0.89150
C2422       C  0.79225385  0.53594280  0.04805917     0.89320
O2423       O  0.73338303  0.77484081  0.28631192    -0.72990
O2424       O  0.79142238  0.77779337  0.21420422    -0.73020
O2425       O  0.73335817  0.77509393  0.21427958    -0.73070
O2426       O  0.79132867  0.77741349  0.28622161    -0.73120
O2427       O  0.76637317  0.72379199  0.28594900    -0.73050
O2428       O  0.70853280  0.72148092  0.21400112    -0.73030
O2429       O  0.76657322  0.72418602  0.21386954    -0.73010
O2430       O  0.70844178  0.72122435  0.28594237    -0.73070
Ni2431     Ni  0.76331278  0.77821084  0.25025670     1.25410
Ni2432     Ni  0.73656009  0.72075535  0.24991901     1.25360
C2433       C  0.71090081  0.74741912  0.29726006     0.89190
C2434       C  0.78902582  0.75162976  0.20289293     0.89120
C2435       C  0.71088543  0.74772399  0.20311419     0.89150
C2436       C  0.78879221  0.75111020  0.29724348     0.89320
C2437       C  0.81258301  0.75273911  0.32174597    -0.11830
C2438       C  0.83577053  0.75928212  0.34005896    -0.13390
C2439       C  0.75400986  0.94210225  0.32018397    -0.11830
C2440       C  0.76067750  0.92545947  0.33809993    -0.13390
C2441       C  0.68694138  0.74555063  0.32167947    -0.11830
C2442       C  0.66368544  0.73893049  0.33989695    -0.13390
C2443       C  0.74454946  0.55920005  0.32041094    -0.11830
C2444       C  0.73837052  0.57615290  0.33833882    -0.13390
C2445       C  0.58571313  0.53473383  0.34347348    -0.11910
C2446       C  0.56913912  0.53448624  0.37430385     0.10240
C2447       C  0.58640187  0.55184842  0.40452081    -0.11910
C2448       C  0.61998330  0.56924977  0.40398903    -0.11910
C2449       C  0.63681481  0.56961293  0.37315188     0.10240
C2450       C  0.61930864  0.55220730  0.34285308    -0.11910
H2451       H  0.57258534  0.02158396  0.31987840     0.14230
H2452       H  0.57381494  0.55172322  0.42853425     0.14230
H2453       H  0.63276971  0.58197552  0.42790608     0.14230
H2454       H  0.63156876  0.55239217  0.31855097     0.14230
C2455       C  0.53512102  0.58537625  0.40598067    -0.11910
C2456       C  0.53456576  0.56867472  0.37511117     0.10240
C2457       C  0.55095934  0.58580001  0.34444155    -0.11910
C2458       C  0.56772958  0.61935161  0.34458579    -0.11910
C2459       C  0.56842391  0.63629491  0.37548088     0.10240
C2460       C  0.55194352  0.61894073  0.40619963    -0.11910
H2461       H  0.02266045  0.57237014  0.42989603     0.14230
H2462       H  0.55053886  0.57312911  0.32037512     0.14230
H2463       H  0.57977548  0.63202868  0.32037035     0.14230
H2464       H  0.55241087  0.63130975  0.43052732     0.14230
C2465       C  0.96437344  0.91302227  0.40598227    -0.11910
C2466       C  0.96451394  0.92963330  0.37522341     0.10240
C2467       C  0.94775887  0.91245801  0.34470144    -0.11910
C2468       C  0.93107408  0.87892420  0.34486077    -0.11910
C2469       C  0.93078157  0.86206352  0.37564911     0.10240
C2470       C  0.94758073  0.87947348  0.40624188    -0.11910
H2471       H  0.97712628  0.92608714  0.42978009     0.14230
H2472       H  0.94787050  0.92507762  0.32072247     0.14230
H2473       H  0.91879207  0.86620283  0.32072959     0.14230
H2474       H  0.94741214  0.86716472  0.43049599     0.14230
C2475       C  0.91322095  0.96525910  0.34372746    -0.11910
C2476       C  0.92974350  0.96394169  0.37391186     0.10240
C2477       C  0.91227458  0.94568577  0.40356102    -0.11910
C2478       C  0.87865644  0.92902247  0.40311615    -0.11910
C2479       C  0.86188083  0.93029268  0.37294373     0.10240
C2480       C  0.87959759  0.94858197  0.34320992    -0.11910
H2481       H  0.92641421  0.47910451  0.32053388     0.14230
H2482       H  0.92472422  0.94463476  0.42716126     0.14230
H2483       H  0.86584019  0.91565685  0.42668923     0.14230
H2484       H  0.86750155  0.94967796  0.31933535     0.14290
C2485       C  0.56895074  0.95000568  0.40580920    -0.11910
C2486       C  0.56798347  0.93174927  0.37602081     0.10240
C2487       C  0.54980265  0.93030920  0.34590320    -0.11910
C2488       C  0.53300931  0.94676124  0.34560229    -0.11910
C2489       C  0.53414765  0.96491637  0.37534174     0.10240
C2490       C  0.55217695  0.96647286  0.40543056    -0.11910
H2491       H  0.58225984  0.95118382  0.42963304     0.14230
H2492       H  0.54899050  0.91693607  0.32231891     0.14230
H2493       H  0.01931634  0.94557797  0.32210124     0.14230
H2494       H  0.55304479  0.48027656  0.42866063     0.14230
C2495       C  0.66386255  0.92670892  0.41118830    -0.11830
C2496       C  0.68732995  0.94287003  0.42933942    -0.13390
C2497       C  0.93294658  0.55091577  0.40627372    -0.11910
C2498       C  0.93309914  0.56816510  0.37590830     0.10240
C2499       C  0.94957486  0.56787027  0.34507328    -0.11910
C2500       C  0.96558046  0.55067233  0.34463289    -0.11910
C2501       C  0.96524486  0.53350928  0.37494085     0.10240
C2502       C  0.94887579  0.53364242  0.40573900    -0.11910
H2503       H  0.92085891  0.55110336  0.43056196     0.14230
H2504       H  0.94967655  0.58051738  0.32113961     0.14230
H2505       H  0.47813300  0.55059482  0.32067598     0.14230
H2506       H  0.94873507  0.02061919  0.42937658     0.14230
C2507       C  0.83848542  0.57467923  0.41116965    -0.11830
C2508       C  0.81521543  0.55818834  0.42935006    -0.13390
C2509       C  0.81303084  0.75359633  0.17843447    -0.11830
C2510       C  0.83632789  0.76035061  0.16019942    -0.13390
C2511       C  0.73557714  0.57540043  0.16013132    -0.11830
C2512       C  0.74197960  0.55847471  0.17795800    -0.13390
C2513       C  0.68670750  0.74586574  0.17905060    -0.11830
C2514       C  0.66315414  0.73893934  0.16121564    -0.13390
C2515       C  0.75831306  0.92465868  0.15893682    -0.11830
C2516       C  0.75192509  0.94115861  0.17743216    -0.13390
C2517       C  0.58555038  0.54043160  0.09331795    -0.11910
C2518       C  0.56935522  0.53861111  0.12520159     0.10240
C2519       C  0.58689884  0.55647566  0.15525122    -0.11910
C2520       C  0.62046762  0.57353675  0.15439763    -0.11910
C2521       C  0.63665008  0.57343724  0.12336617     0.10240
C2522       C  0.61916871  0.55768033  0.09251062    -0.11910
H2523       H  0.57218821  0.02707775  0.06988145     0.14230
H2524       H  0.57459805  0.55572839  0.17975122     0.14230
H2525       H  0.63383545  0.58616720  0.17810615     0.14230
H2526       H  0.63155972  0.55790979  0.06828466     0.14230
C2527       C  0.53655656  0.58627970  0.15651450    -0.11910
C2528       C  0.53436745  0.56933825  0.12515338     0.10240
C2529       C  0.54926628  0.58635180  0.09376063    -0.11910
C2530       C  0.56594326  0.61992027  0.09366194    -0.11910
C2531       C  0.56820428  0.63680055  0.12504580     0.10240
C2532       C  0.55353087  0.61986989  0.15649417    -0.11910
H2533       H  0.02523729  0.57342934  0.18091434     0.14230
H2534       H  0.54779829  0.57355004  0.06940956     0.14230
H2535       H  0.57728838  0.63275317  0.06925354     0.14230
H2536       H  0.55508313  0.63267864  0.18087405     0.14230
C2537       C  0.93162948  0.87999632  0.15586957    -0.11910
C2538       C  0.93208076  0.86310413  0.12538993     0.10240
C2539       C  0.94984535  0.88048489  0.09519978    -0.11910
C2540       C  0.96691903  0.91403899  0.09541310    -0.11910
C2541       C  0.96613551  0.93073010  0.12577322     0.10240
C2542       C  0.94829545  0.91356928  0.15608391    -0.11910
H2543       H  0.91865119  0.86729601  0.17967338     0.14230
H2544       H  0.95015423  0.86815746  0.07117807     0.14230
H2545       H  0.48034735  0.92703732  0.07192245     0.14230
H2546       H  0.94761715  0.92624413  0.17964019     0.14230
C2547       C  0.90999062  0.97896380  0.10323157    -0.11910
C2548       C  0.92738397  0.96323164  0.11179542     0.10240
C2549       C  0.90702702  0.92923388  0.11203267    -0.11910
C2550       C  0.87387628  0.91393128  0.11634000    -0.11910
C2551       C  0.85813104  0.93129645  0.11480856     0.10240
C2552       C  0.87642301  0.96398656  0.10670435    -0.11910
H2553       H  0.92087009  0.50212526  0.09134469     0.14230
H2554       H  0.91435238  0.91266856  0.10520904     0.14230
H2555       H  0.86046471  0.88800996  0.11923932     0.14230
H2556       H  0.86469313  0.97758490  0.10111436     0.14230
C2557       C  0.53873713  0.91511184  0.14082594    -0.11910
C2558       C  0.57188564  0.93115250  0.13493926     0.10240
C2559       C  0.58863578  0.96460600  0.13634985    -0.11910
C2560       C  0.57211699  0.98122200  0.13939468    -0.11910
C2561       C  0.53784976  0.96571349  0.13872146     0.10240
C2562       C  0.52315691  0.93235733  0.14599885    -0.11910
H2563       H  0.52462880  0.88920062  0.14300425     0.14230
H2564       H  0.61472507  0.97813863  0.13663524     0.14230
H2565       H  0.58804864  0.50577027  0.14485326     0.14230
H2566       H  0.00047631  0.91874222  0.15863894     0.14230
C2567       C  0.68787411  0.94118438  0.07197695    -0.11830
C2568       C  0.66451817  0.92448147  0.08999090    -0.13390
C2569       C  0.93446647  0.55196414  0.15770932    -0.11910
C2570       C  0.93571803  0.57048624  0.12824800     0.10240
C2571       C  0.95400567  0.57288142  0.09818251    -0.11910
C2572       C  0.97007769  0.55583826  0.09695575    -0.11910
C2573       C  0.96742825  0.53576470  0.12563031     0.10240
C2574       C  0.95039923  0.53466137  0.15646765    -0.11910
H2575       H  0.92056541  0.55034235  0.18115742     0.14230
H2576       H  0.95524574  0.58738745  0.07547772     0.14230
H2577       H  0.48324787  0.55694646  0.07305447     0.14230
H2578       H  0.94863544  0.01962384  0.17889742     0.14230
C2579       C  0.84038001  0.57408599  0.09033844    -0.11830
C2580       C  0.81693620  0.55752753  0.07226023    -0.13390
C2581       C  0.94170402  0.75495179  0.07143063    -0.11830
C2582       C  0.92504062  0.76148734  0.08950147    -0.13390
C2583       C  0.57562095  0.73810671  0.08867620    -0.11830
C2584       C  0.55903444  0.74497994  0.07095935    -0.13390
C2585       C  0.57516493  0.73795193  0.41067808    -0.11830
C2586       C  0.55852770  0.74458634  0.42863708    -0.13390
C2587       C  0.92463036  0.76068289  0.41052920    -0.11830
C2588       C  0.94138682  0.75423839  0.42852481    -0.13390
C2589       C  0.74017233  0.66481649  0.08715872    -0.11830
C2590       C  0.74631158  0.68801036  0.06915155    -0.13390
C2591       C  0.73982917  0.66513549  0.40832497    -0.11830
C2592       C  0.74656298  0.68840557  0.42654765    -0.13390
C2593       C  0.75433762  0.83528585  0.08680199    -0.11830
C2594       C  0.74859963  0.81192556  0.06924906    -0.13390
C2595       C  0.75084371  0.81247303  0.42623003    -0.11830
C2596       C  0.75794665  0.83575443  0.40786746    -0.13390
C2597       C  0.94331279  0.68623960  0.18081974    -0.11830
C2598       C  0.92653684  0.66284976  0.16290039    -0.13390
C2599       C  0.92681325  0.66340601  0.34173065    -0.11830
C2600       C  0.94298242  0.68686950  0.32365368    -0.13390
C2601       C  0.55998032  0.81371102  0.32399002    -0.11830
C2602       C  0.57580624  0.83722621  0.34216411    -0.13390
C2603       C  0.57938616  0.83592250  0.16313394    -0.11830
C2604       C  0.56211346  0.81261121  0.18090244    -0.13390
O2605       O  0.95937213  0.73247684  0.78753875    -0.72990
O2606       O  0.51539035  0.79076753  0.71570656    -0.73020
O2607       O  0.95998217  0.73234848  0.71564205    -0.73070
O2608       O  0.51443764  0.79111336  0.78761512    -0.73120
O2609       O  0.54425774  0.76779271  0.78862173    -0.73050
O2610       O  0.98941972  0.70861239  0.71666450    -0.73030
O2611       O  0.54479284  0.76699622  0.71671209    -0.73010
O2612       O  0.98920403  0.70916793  0.78852069    -0.73070
Ni2613     Ni  0.98626660  0.76257004  0.75157766     1.25410
Ni2614     Ni  0.51794839  0.73726165  0.75265348     1.25360
C2615       C  0.96491771  0.71084666  0.79918228     0.89190
C2616       C  0.53959520  0.78880827  0.70510975     0.89120
C2617       C  0.96537301  0.71038629  0.70506361     0.89150
C2618       C  0.53851703  0.78954023  0.79933093     0.89320
O2619       O  0.72068585  0.70844201  0.53373893    -0.72990
O2620       O  0.72196848  0.76588063  0.96171396    -0.73020
O2621       O  0.72105980  0.70880833  0.96180179    -0.73070
O2622       O  0.72110329  0.76533124  0.53380783    -0.73120
O2623       O  0.77485254  0.79175383  0.53441337    -0.73050
O2624       O  0.77480314  0.73486983  0.96240477    -0.73030
O2625       O  0.77570977  0.79194022  0.96239840    -0.73010
O2626       O  0.77444119  0.73486495  0.53441727    -0.73070
Ni2627     Ni  0.71928203  0.73614261  0.49776149     1.25410
Ni2628     Ni  0.77687365  0.76434095  0.49844817     1.25360
C2629       C  0.74729247  0.71173650  0.54508549     0.89190
C2630       C  0.74925831  0.78878875  0.95086620     0.89120
C2631       C  0.74770766  0.71201217  0.95097773     0.89150
C2632       C  0.74805483  0.78835114  0.54517676     0.89320
O2633       O  0.98816562  0.77861386  0.53590488    -0.72990
O2634       O  0.54260280  0.77448693  0.96386492    -0.73020
O2635       O  0.98794480  0.77826882  0.96388612    -0.73070
O2636       O  0.54284581  0.77476020  0.53585580    -0.73120
O2637       O  0.51225568  0.72120238  0.53607830    -0.73050
O2638       O  0.95744551  0.72470251  0.96411527    -0.73030
O2639       O  0.51208898  0.72092610  0.96413968    -0.73010
O2640       O  0.95761960  0.72505915  0.53613492    -0.73070
Ni2641     Ni  0.51644584  0.77845958  0.99987781     1.25410
Ni2642     Ni  0.98379147  0.72105999  0.00013531     1.25360
C2643       C  0.96359590  0.75265162  0.54712516     0.89190
C2644       C  0.53663761  0.74689442  0.95290231     0.89120
C2645       C  0.96336842  0.75218917  0.95286789     0.89150
C2646       C  0.53693563  0.74723048  0.54697919     0.89320
C2647       C  0.87050764  0.58918852  0.60937430     0.04570
C2648       C  0.88272278  0.61903184  0.62669526    -0.11580
C2649       C  0.91239503  0.63247101  0.64476469     0.02070
C2650       C  0.92933434  0.61612743  0.64573822    -0.10110
C2651       C  0.91725641  0.58676161  0.62829246     0.04560
C2652       C  0.88800902  0.57336125  0.60997541    -0.09530
H2653       H  0.86942777  0.63156873  0.62608363     0.10160
H2654       H  0.95220082  0.62644144  0.65971432     0.07680
H2655       H  0.87886600  0.55052965  0.59628929     0.07530
C2656       C  0.63473340  0.90954230  0.60951681     0.04570
C2657       C  0.62253089  0.87947588  0.62612283    -0.11580
C2658       C  0.59373269  0.86657601  0.64556731     0.02070
C2659       C  0.57784016  0.88377964  0.64888973    -0.10110
C2660       C  0.58931648  0.91334504  0.63159306     0.04560
C2661       C  0.61783693  0.92596260  0.61166626    -0.09530
H2662       H  0.63526973  0.86643999  0.62407422     0.10160
H2663       H  0.55661984  0.87399407  0.66563241     0.07680
H2664       H  0.62704834  0.94864071  0.59771113     0.07530
C2665       C  0.98277140  0.51609351  0.62305465     0.03730
C2666       C  0.96488710  0.98170197  0.61944316     0.03730
C2667       C  0.98335890  0.96582210  0.62570982     0.03730
C2668       C  0.51821662  0.98318249  0.63144629     0.03730
C2669       C  0.53408807  0.51749429  0.62750322     0.03730
C2670       C  0.51656902  0.53334599  0.62521543     0.03730
C2671       C  0.77306103  0.91003290  0.63885933     0.04570
C2672       C  0.75487133  0.87935253  0.62309382    -0.11580
C2673       C  0.77076186  0.86643055  0.60390034     0.02070
C2674       C  0.80419816  0.88410012  0.60055870    -0.10110
C2675       C  0.82253043  0.91422142  0.61690206     0.04560
C2676       C  0.80673664  0.92717844  0.63582874    -0.09530
H2677       H  0.72888442  0.86585176  0.62566885     0.10160
H2678       H  0.81601087  0.87419007  0.58489383     0.07680
H2679       H  0.82069671  0.95041585  0.64872453     0.07530
C2680       C  0.59016714  0.72244210  0.60712959     0.04570
C2681       C  0.57358559  0.68877800  0.60688575    -0.11580
C2682       C  0.58597246  0.67212441  0.62499007     0.02070
C2683       C  0.61534535  0.68919676  0.64302156    -0.10110
C2684       C  0.63265329  0.72286553  0.64271119     0.04560
C2685       C  0.61999478  0.73971226  0.62490327    -0.09530
H2686       H  0.55073135  0.67542976  0.59298367     0.10160
H2687       H  0.62492388  0.67616865  0.65695385     0.07680
H2688       H  0.63310326  0.76577244  0.62488714     0.07530
C2689       C  0.72103300  0.59104260  0.64139569     0.04570
C2690       C  0.68736465  0.57580083  0.64148260    -0.11580
C2691       C  0.67184084  0.58944120  0.62338327     0.02070
C2692       C  0.68987300  0.61850527  0.60541737    -0.10110
C2693       C  0.72348352  0.63447985  0.60573003     0.04560
C2694       C  0.73935961  0.62073438  0.62359342    -0.09530
H2695       H  0.67313333  0.55311108  0.65536509     0.10160
H2696       H  0.67759916  0.62893454  0.59152208     0.07680
H2697       H  0.76542198  0.63289833  0.62366520     0.07530
C2698       C  0.91027693  0.77694762  0.60800608     0.04570
C2699       C  0.92707354  0.81058508  0.60843655    -0.11580
C2700       C  0.91405954  0.82743314  0.62506894     0.02070
C2701       C  0.88380907  0.81004121  0.64147595    -0.10110
C2702       C  0.86682754  0.77638774  0.64164396     0.04560
C2703       C  0.87999566  0.75960588  0.62476602    -0.09530
H2704       H  0.95063134  0.82366411  0.59604657     0.10160
H2705       H  0.87320453  0.82270605  0.65402362     0.07680
H2706       H  0.86693986  0.73354949  0.62469762     0.07530
C2707       C  0.86886322  0.58936741  0.89292877     0.04570
C2708       C  0.88214419  0.61959690  0.87649654    -0.11580
C2709       C  0.91236138  0.63297674  0.85990750     0.02070
C2710       C  0.92903365  0.61627957  0.85995225    -0.10110
C2711       C  0.91574144  0.58604111  0.87624210     0.04560
C2712       C  0.88555673  0.57275417  0.89263039    -0.09530
H2713       H  0.86917962  0.63247612  0.87659736     0.10160
H2714       H  0.95253011  0.62701679  0.84742729     0.07680
H2715       H  0.87475601  0.54918571  0.90493376     0.07530
C2716       C  0.63339696  0.91181234  0.89292532     0.04570
C2717       C  0.62029999  0.88149669  0.87671595    -0.11580
C2718       C  0.58995513  0.86768095  0.86030625     0.02070
C2719       C  0.57288633  0.88397694  0.86039075    -0.10110
C2720       C  0.58596392  0.91438322  0.87631415     0.04560
C2721       C  0.61638872  0.92814977  0.89244731    -0.09530
H2722       H  0.63351452  0.86886716  0.87685821     0.10160
H2723       H  0.54922492  0.87274823  0.84815800     0.07680
H2724       H  0.62711089  0.95181844  0.90448747     0.07530
C2725       C  0.98270963  0.51583225  0.87467617     0.03730
C2726       C  0.96549109  0.98191498  0.87452052     0.03730
C2727       C  0.98240484  0.96520847  0.87492202     0.03730
C2728       C  0.51640005  0.98242253  0.87498821     0.03730
C2729       C  0.53350198  0.51633920  0.87478210     0.03730
C2730       C  0.51664436  0.53304373  0.87486569     0.03730
C2731       C  0.72297905  0.59111521  0.85642724     0.04570
C2732       C  0.74040395  0.62133986  0.87320465    -0.11580
C2733       C  0.72365590  0.63467154  0.88977026     0.02070
C2734       C  0.68993768  0.61785175  0.88934623    -0.10110
C2735       C  0.67250266  0.58767340  0.87282279     0.04560
C2736       C  0.68931114  0.57454283  0.85642279    -0.09530
H2737       H  0.76649569  0.63421741  0.87340614     0.10160
H2738       H  0.67724639  0.62845725  0.90183893     0.07680
H2739       H  0.67615476  0.55102792  0.84396343     0.07530
C2740       C  0.58993058  0.72242134  0.89235971     0.04570
C2741       C  0.62009132  0.73974621  0.87535194    -0.11580
C2742       C  0.63324322  0.72294245  0.85851145     0.02070
C2743       C  0.61632661  0.68929809  0.85883112    -0.10110
C2744       C  0.58627142  0.67193866  0.87560994     0.04560
C2745       C  0.57328996  0.68876709  0.89233762    -0.09530
H2746       H  0.63306856  0.76580286  0.87520983     0.10160
H2747       H  0.62682402  0.67658298  0.84615185     0.07680
H2748       H  0.54988834  0.67563590  0.90507579     0.07530
C2749       C  0.77588382  0.91025237  0.85625938     0.04570
C2750       C  0.75813259  0.87999499  0.87286361    -0.11580
C2751       C  0.77450470  0.86619277  0.88929623     0.02070
C2752       C  0.80821152  0.88252595  0.88882931    -0.10110
C2753       C  0.82608751  0.91281718  0.87263348     0.04560
C2754       C  0.80958501  0.92645986  0.85644342    -0.09530
H2755       H  0.73204847  0.86743392  0.87302708     0.10160
H2756       H  0.82052502  0.87140963  0.90106663     0.07680
H2757       H  0.82297092  0.95003463  0.84421714     0.07530
C2758       C  0.90972488  0.77608990  0.89229611     0.04570
C2759       C  0.92624756  0.80973094  0.89232845    -0.11580
C2760       C  0.91305912  0.82644486  0.87577349     0.02070
C2761       C  0.88293726  0.80898702  0.85911092    -0.10110
C2762       C  0.86619215  0.77535629  0.85869236     0.04560
C2763       C  0.87952402  0.75865645  0.87536869    -0.09530
H2764       H  0.94970986  0.82293324  0.90497718     0.10160
H2765       H  0.87226917  0.82160606  0.84656110     0.07680
H2766       H  0.86665815  0.73260192  0.87515897     0.07530
O2767       O  0.77620146  0.98784776  0.71233598    -0.72990
O2768       O  0.77361897  0.54287047  0.78447273    -0.73020
O2769       O  0.77732118  0.98827410  0.78429146    -0.73070
O2770       O  0.77235159  0.54246692  0.71248573    -0.73120
O2771       O  0.71873192  0.51198586  0.71345299    -0.73050
O2772       O  0.72369080  0.95784462  0.78529945    -0.73030
O2773       O  0.71997683  0.51247604  0.78544803    -0.73010
O2774       O  0.72257070  0.95734933  0.71328740    -0.73070
Ni2775     Ni  0.77679064  0.51641383  0.74834540     1.25410
Ni2776     Ni  0.71931436  0.98385586  0.74940330     1.25360
C2777       C  0.74999939  0.96319812  0.70173618     0.89190
C2778       C  0.74624472  0.53705381  0.79609991     0.89120
C2779       C  0.75144018  0.96383345  0.79589794     0.89150
C2780       C  0.74458674  0.53653157  0.70196465     0.89320
O2781       O  0.71131256  0.98790346  0.53747675    -0.72990
O2782       O  0.77006912  0.54264302  0.96562457    -0.73020
O2783       O  0.71079272  0.98852288  0.96563513    -0.73070
O2784       O  0.77077424  0.54215258  0.53750248    -0.73120
O2785       O  0.79307593  0.51142200  0.53650351    -0.73050
O2786       O  0.73309977  0.95779153  0.96458529    -0.73030
O2787       O  0.79241561  0.51194183  0.96460628    -0.73010
O2788       O  0.73362172  0.95717262  0.53646098    -0.73070
Ni2789     Ni  0.73989696  0.51638065  0.50162642     1.25410
Ni2790     Ni  0.76390771  0.98351411  0.00051435     1.25360
C2791       C  0.71229186  0.96319743  0.54797091     0.89190
C2792       C  0.79124561  0.53649986  0.95391411     0.89120
C2793       C  0.71173668  0.96412142  0.95391730     0.89150
C2794       C  0.79225382  0.53594276  0.54805919     0.89320
O2795       O  0.73338304  0.77484081  0.78631191    -0.72990
O2796       O  0.79142239  0.77779336  0.71420421    -0.73020
O2797       O  0.73335818  0.77509394  0.71427957    -0.73070
O2798       O  0.79132867  0.77741348  0.78622160    -0.73120
O2799       O  0.76637316  0.72379197  0.78594899    -0.73050
O2800       O  0.70853280  0.72148094  0.71400111    -0.73030
O2801       O  0.76657321  0.72418601  0.71386953    -0.73010
O2802       O  0.70844178  0.72122435  0.78594236    -0.73070
Ni2803     Ni  0.76331279  0.77821084  0.75025669     1.25410
Ni2804     Ni  0.73656008  0.72075535  0.74991899     1.25360
C2805       C  0.71090082  0.74741913  0.79726005     0.89190
C2806       C  0.78902582  0.75162974  0.70289292     0.89120
C2807       C  0.71088544  0.74772400  0.70311418     0.89150
C2808       C  0.78879220  0.75111018  0.79724348     0.89320
C2809       C  0.81258299  0.75273909  0.82174596    -0.11830
C2810       C  0.83577051  0.75928210  0.84005896    -0.13390
C2811       C  0.75400979  0.94210221  0.82018399    -0.11830
C2812       C  0.76067745  0.92545944  0.83809995    -0.13390
C2813       C  0.68694139  0.74555064  0.82167946    -0.11830
C2814       C  0.66368545  0.73893050  0.83989695    -0.13390
C2815       C  0.74454949  0.55920006  0.82041096    -0.11830
C2816       C  0.73837054  0.57615291  0.83833884    -0.13390
C2817       C  0.58571314  0.53473381  0.84347352    -0.11910
C2818       C  0.56913912  0.53448622  0.87430388     0.10240
C2819       C  0.58640187  0.55184839  0.90452085    -0.11910
C2820       C  0.61998330  0.56924972  0.90398908    -0.11910
C2821       C  0.63681481  0.56961288  0.87315194     0.10240
C2822       C  0.61930864  0.55220726  0.84285314    -0.11910
H2823       H  0.57258532  0.02158395  0.81987837     0.14230
H2824       H  0.57381493  0.55172319  0.92853429     0.14230
H2825       H  0.63276970  0.58197546  0.92790614     0.14230
H2826       H  0.63156877  0.55239213  0.81855103     0.14230
C2827       C  0.53512102  0.58537625  0.90598068    -0.11910
C2828       C  0.53456577  0.56867473  0.87511118     0.10240
C2829       C  0.55095936  0.58580001  0.84444157    -0.11910
C2830       C  0.56772961  0.61935161  0.84458581    -0.11910
C2831       C  0.56842392  0.63629492  0.87548089     0.10240
C2832       C  0.55194352  0.61894074  0.90619964    -0.11910
H2833       H  0.02266044  0.57237013  0.92989604     0.14230
H2834       H  0.55053889  0.57312911  0.82037514     0.14230
H2835       H  0.57977552  0.63202868  0.82037037     0.14230
H2836       H  0.55241087  0.63130976  0.93052732     0.14230
C2837       C  0.96437342  0.91302225  0.90598229    -0.11910
C2838       C  0.96451391  0.92963328  0.87522343     0.10240
C2839       C  0.94775883  0.91245799  0.84470147    -0.11910
C2840       C  0.93107403  0.87892418  0.84486080    -0.11910
C2841       C  0.93078153  0.86206350  0.87564914     0.10240
C2842       C  0.94758071  0.87947346  0.90624190    -0.11910
H2843       H  0.97712628  0.92608712  0.92978010     0.14230
H2844       H  0.94787044  0.92507760  0.82072250     0.14230
H2845       H  0.91879201  0.86620281  0.82072963     0.14230
H2846       H  0.94741213  0.86716470  0.93049600     0.14230
C2847       C  0.91322092  0.96525912  0.84372748    -0.11910
C2848       C  0.92974347  0.96394168  0.87391187     0.10240
C2849       C  0.91227454  0.94568573  0.90356101    -0.11910
C2850       C  0.87865641  0.92902243  0.90311614    -0.11910
C2851       C  0.86188080  0.93029267  0.87294373     0.10240
C2852       C  0.87959757  0.94858200  0.84320994    -0.11910
H2853       H  0.92641420  0.47910452  0.82053389     0.14230
H2854       H  0.92472418  0.94463469  0.92716124     0.14230
H2855       H  0.86584015  0.91565679  0.92668920     0.14230
H2856       H  0.86750153  0.94967802  0.81933539     0.14290
C2857       C  0.56895088  0.95000578  0.90580916    -0.11910
C2858       C  0.56798352  0.93174928  0.87602082     0.10240
C2859       C  0.54980260  0.93030911  0.84590326    -0.11910
C2860       C  0.53300924  0.94676114  0.84560236    -0.11910
C2861       C  0.53414767  0.96491636  0.87534175     0.10240
C2862       C  0.55217707  0.96647295  0.90543052    -0.11910
H2863       H  0.58226005  0.95118401  0.92963297     0.14230
H2864       H  0.54899038  0.91693592  0.82231900     0.14230
H2865       H  0.01931623  0.94557785  0.82210130     0.14230
H2866       H  0.55304467  0.48027646  0.92866069     0.14230
C2867       C  0.66386264  0.92670889  0.91118825    -0.11830
C2868       C  0.68733007  0.94286999  0.92933934    -0.13390
C2869       C  0.93294657  0.55091576  0.90627372    -0.11910
C2870       C  0.93309914  0.56816510  0.87590831     0.10240
C2871       C  0.94957486  0.56787027  0.84507328    -0.11910
C2872       C  0.96558045  0.55067232  0.84463289    -0.11910
C2873       C  0.96524484  0.53350927  0.87494086     0.10240
C2874       C  0.94887577  0.53364241  0.90573900    -0.11910
H2875       H  0.92085890  0.55110335  0.93056196     0.14230
H2876       H  0.94967655  0.58051738  0.82113962     0.14230
H2877       H  0.47813300  0.55059483  0.82067598     0.14230
H2878       H  0.94873503  0.02061918  0.92937659     0.14230
C2879       C  0.83848543  0.57467928  0.91116963    -0.11830
C2880       C  0.81521544  0.55818839  0.92935003    -0.13390
C2881       C  0.81303083  0.75359630  0.67843447    -0.11830
C2882       C  0.83632788  0.76035058  0.66019942    -0.13390
C2883       C  0.73557711  0.57540043  0.66013134    -0.11830
C2884       C  0.74197956  0.55847470  0.67795802    -0.13390
C2885       C  0.68670752  0.74586576  0.67905059    -0.11830
C2886       C  0.66315416  0.73893938  0.66121563    -0.13390
C2887       C  0.75831298  0.92465866  0.65893682    -0.11830
C2888       C  0.75192502  0.94115859  0.67743218    -0.13390
C2889       C  0.58555039  0.54043201  0.59331789    -0.11910
C2890       C  0.56935523  0.53861124  0.62520164     0.10240
C2891       C  0.58689884  0.55647554  0.65525139    -0.11910
C2892       C  0.62046762  0.57353663  0.65439781    -0.11910
C2893       C  0.63665009  0.57343736  0.62336624     0.10240
C2894       C  0.61916872  0.55768073  0.59251058    -0.11910
H2895       H  0.57218826  0.02707828  0.56988117     0.14230
H2896       H  0.57459804  0.55572808  0.67975146     0.14230
H2897       H  0.63383545  0.58616688  0.67810641     0.14230
H2898       H  0.63155973  0.55791036  0.56828454     0.14230
C2899       C  0.53655660  0.58627975  0.65651452    -0.11910
C2900       C  0.53436743  0.56933830  0.62515338     0.10240
C2901       C  0.54926623  0.58635185  0.59376062    -0.11910
C2902       C  0.56594322  0.61992032  0.59366194    -0.11910
C2903       C  0.56820429  0.63680060  0.62504581     0.10240
C2904       C  0.55353092  0.61986993  0.65649420    -0.11910
H2905       H  0.02523711  0.57342924  0.68091426     0.14230
H2906       H  0.54779819  0.57355009  0.56940953     0.14230
H2907       H  0.57728831  0.63275322  0.56925353     0.14230
H2908       H  0.55508321  0.63267869  0.68087409     0.14230
C2909       C  0.93162951  0.87999629  0.65586961    -0.11910
C2910       C  0.93208069  0.86310411  0.62538991     0.10240
C2911       C  0.94984516  0.88048487  0.59519970    -0.11910
C2912       C  0.96691880  0.91403896  0.59541301    -0.11910
C2913       C  0.96613541  0.93073007  0.62577320     0.10240
C2914       C  0.94829548  0.91356926  0.65608396    -0.11910
H2915       H  0.91865130  0.86729597  0.67967345     0.14230
H2916       H  0.95015396  0.86815743  0.57117796     0.14230
H2917       H  0.48035064  0.92703770  0.57192354     0.14230
H2918       H  0.94761727  0.92624410  0.67964029     0.14230
C2919       C  0.90999060  0.97896379  0.60323149    -0.11910
C2920       C  0.92738391  0.96323162  0.61179547     0.10240
C2921       C  0.90702691  0.92923386  0.61203290    -0.11910
C2922       C  0.87387618  0.91393132  0.61634020    -0.11910
C2923       C  0.85813098  0.93129651  0.61480857     0.10240
C2924       C  0.87642299  0.96398659  0.60670425    -0.11910
H2925       H  0.92087010  0.50212527  0.59134456     0.14230
H2926       H  0.91435219  0.91266847  0.60520939     0.14230
H2927       H  0.86046458  0.88801001  0.61923962     0.14230
H2928       H  0.86469313  0.97758494  0.60111416     0.14230
C2929       C  0.53873598  0.91511170  0.64082846    -0.11910
C2930       C  0.57188433  0.93115183  0.63493997     0.10240
C2931       C  0.58863483  0.96460534  0.63634943    -0.11910
C2932       C  0.57211654  0.98122177  0.63939410    -0.11910
C2933       C  0.53784935  0.96571366  0.63872204     0.10240
C2934       C  0.52315623  0.93235779  0.64600128    -0.11910
H2935       H  0.52462744  0.88920059  0.64300790     0.14230
H2936       H  0.61472412  0.97813779  0.63663387     0.14230
H2937       H  0.58804894  0.50577036  0.64485198     0.14230
H2938       H  0.00047615  0.91874176  0.65863811     0.14230
C2939       C  0.68787337  0.94118453  0.57197696    -0.11830
C2940       C  0.66451727  0.92448159  0.58999072    -0.13390
C2941       C  0.93446644  0.55196411  0.65770930    -0.11910
C2942       C  0.93571803  0.57048623  0.62824798     0.10240
C2943       C  0.95400571  0.57288143  0.59818252    -0.11910
C2944       C  0.97007772  0.55583826  0.59695577    -0.11910
C2945       C  0.96742824  0.53576468  0.62563032     0.10240
C2946       C  0.95039919  0.53466133  0.65646764    -0.11910
H2947       H  0.92056535  0.55034230  0.68115738     0.14230
H2948       H  0.95524581  0.58738748  0.57547773     0.14230
H2949       H  0.48324780  0.55694639  0.57305440     0.14230
H2950       H  0.94863537  0.01962381  0.67889740     0.14230
C2951       C  0.84037999  0.57408597  0.59033844    -0.11830
C2952       C  0.81693617  0.55752750  0.57226024    -0.13390
C2953       C  0.94170402  0.75495179  0.57143063    -0.11830
C2954       C  0.92504062  0.76148735  0.58950146    -0.13390
C2955       C  0.57562097  0.73810675  0.58867619    -0.11830
C2956       C  0.55903446  0.74497996  0.57095934    -0.13390
C2957       C  0.57516496  0.73795195  0.91067808    -0.11830
C2958       C  0.55852773  0.74458636  0.92863708    -0.13390
C2959       C  0.92463034  0.76068287  0.91052920    -0.11830
C2960       C  0.94138679  0.75423837  0.92852481    -0.13390
C2961       C  0.74017236  0.66481651  0.58715873    -0.11830
C2962       C  0.74631160  0.68801038  0.56915155    -0.13390
C2963       C  0.73982915  0.66513548  0.90832499    -0.11830
C2964       C  0.74656297  0.68840556  0.92654765    -0.13390
C2965       C  0.75433762  0.83528587  0.58680198    -0.11830
C2966       C  0.74859964  0.81192558  0.56924905    -0.13390
C2967       C  0.75084369  0.81247301  0.92623003    -0.11830
C2968       C  0.75794662  0.83575442  0.90786746    -0.13390
C2969       C  0.94331280  0.68623960  0.68081969    -0.11830
C2970       C  0.92653684  0.66284976  0.66290035    -0.13390
C2971       C  0.92681329  0.66340602  0.84173061    -0.11830
C2972       C  0.94298246  0.68686950  0.82365364    -0.13390
C2973       C  0.55998034  0.81371099  0.82399005    -0.11830
C2974       C  0.57580627  0.83722618  0.84216412    -0.13390
C2975       C  0.57938586  0.83592219  0.66313379    -0.11830
C2976       C  0.56211334  0.81261094  0.68090241    -0.13390
loop_ 
_geom_bond_atom_site_label_1 
_geom_bond_atom_site_label_2 
_geom_bond_distance 
_geom_bond_site_symmetry_2 
_ccdc_geom_bond_type 
O1           Ni9   1.921       .  S
O1           C11   1.280       .  A
O2        Ni1497   1.920   1_455  S
O2           C12   1.282       .  A
O3           Ni9   1.913       .  S
O3           C13   1.277       .  A
O4        Ni1497   1.912   1_455  S
O4           C14   1.279       .  A
O5          Ni10   1.920       .  S
O5           C14   1.280       .  A
O6        Ni1498   1.918       .  S
O6           C13   1.281       .  A
O7          Ni10   1.912       .  S
O7           C12   1.277       .  A
O8        Ni1498   1.911       .  S
O8           C11   1.279       .  A
Ni9        O1490   1.920       .  S
Ni9        O1492   1.912       .  S
Ni9       Ni1498   2.395       .  S
Ni10       O1494   1.918   1_455  S
Ni10       O1496   1.911   1_455  S
Ni10      Ni1497   2.395   1_455  S
C11         C368   1.433       .  S
C12         C372   1.433       .  S
C13         C365   1.432       .  S
C14         C369   1.433       .  S
O15         Ni23   1.923   1_554  S
O15          C25   1.282       .  A
O16        Ni395   1.926       .  S
O16          C26   1.281       .  A
O17        Ni395   1.917       .  S
O17          C27   1.280       .  A
O18         Ni23   1.920   1_554  S
O18          C28   1.279       .  A
O19         Ni24   1.925   1_554  S
O19          C28   1.283       .  A
O20        Ni396   1.926       .  S
O20          C27   1.281       .  A
O21        Ni396   1.917       .  S
O21          C26   1.280       .  A
O22         Ni24   1.919   1_554  S
O22          C25   1.278       .  A
Ni23        O388   1.926       .  S
Ni23        O389   1.917       .  S
Ni23        Ni24   2.392       .  S
Ni24        O392   1.926       .  S
Ni24        O393   1.917       .  S
C25         C358   1.439       .  S
C26         C363   1.441       .  S
C27         C360   1.440       .  S
C28         C362   1.442       .  S
O29       Ni1897   1.921   1_554  S
O29          C39   1.281       .  A
O30         Ni37   1.922       .  S
O30          C40   1.280       .  A
O31       Ni1525   1.920       .  S
O31          C41   1.281       .  A
O32        Ni409   1.922   1_554  S
O32          C42   1.280       .  A
O33       Ni1898   1.918   1_455  S
O33          C42   1.281       .  A
O34         Ni38   1.920       .  S
O34          C41   1.279       .  A
O35       Ni1526   1.921   1_455  S
O35          C40   1.281       .  A
O36        Ni410   1.923       .  S
O36          C39   1.280       .  A
Ni37       O1889   1.921   1_455  S
Ni37       O1519   1.920   1_455  S
Ni37        O404   1.922       .  S
Ni37      Ni1526   2.393   1_455  S
Ni38       O1893   1.918       .  S
Ni38       O1523   1.921       .  S
Ni38        O408   1.923       .  S
Ni38      Ni1525   2.393       .  S
C39         C349   1.441       .  S
C40         C354   1.440       .  S
C41         C356   1.438       .  S
C42         C352   1.439       .  S
C43         C347   1.439       .  S
C43          C44   1.407       .  A
C43          C48   1.398       .  A
C44          C45   1.407       .  A
C44          H49   1.084       .  S
C45         C366   1.435       .  S
C45          C46   1.396       .  A
C46          C47   1.391       .  A
C46          H50   1.085       .  S
C47          C48   1.396       .  A
C47         C338   1.458       .  S
C48          H51   1.085       .  S
C52         C336   1.437       .  S
C52          C53   1.404       .  A
C52          C57   1.400       .  A
C53          C54   1.403       .  A
C53          H58   1.084       .  S
C54         C371   1.436       .  S
C54          C55   1.394       .  A
C55          C56   1.400       .  A
C55          H59   1.083       .  S
C56          C57   1.403       .  A
C56         C326   1.484       .  S
C57          H60   1.084       .  S
C61         C806   1.435   1_545  A
C61        C1554   1.406       .  A
C61         C341   1.476       .  S
C62          C63   1.461       .  A
C62         C805   1.435       .  A
C62         C316   1.583       .  S
C63        C1552   1.463       .  A
C63         C309   1.460       .  S
C64        C1551   1.463   1_455  A
C64         C809   1.435       .  A
C64         C329   1.580       .  S
C65          C66   1.403       .  A
C65         C808   1.435   1_545  A
C65         C286   1.475       .  S
C66        C1549   1.406   1_455  A
C66         C296   1.497       .  S
C67         C283   1.443       .  S
C67          C68   1.411       .  A
C67          C72   1.403       .  A
C68          C69   1.408       .  A
C68          H73   1.084       .  S
C69         C361   1.444       .  S
C69          C70   1.395       .  A
C70          C71   1.401       .  A
C70          H74   1.084       .  S
C71          C72   1.400       .  A
C71         C319   1.482       .  S
C72          H75   1.085       .  S
C76         C351   1.443       .  S
C76          C77   1.400       .  A
C76          C81   1.409       .  A
C77          C78   1.397       .  A
C77          H82   1.085       .  S
C78          C79   1.397       .  A
C78         C299   1.469       .  S
C79          C80   1.400       .  A
C79          H83   1.085       .  S
C80         C282   1.443       .  S
C80          C81   1.409       .  A
C81          H84   1.084       .  S
C85         C279   1.447       .  S
C85          C86   1.401       .  A
C85          C90   1.412       .  A
C86          C87   1.398       .  A
C86          H91   1.085       .  S
C87          C88   1.392       .  A
C87         C289   1.464       .  S
C88          C89   1.397       .  A
C88          H92   1.085       .  S
C89         C357   1.442       .  S
C89          C90   1.411       .  A
C90          H93   1.084       .  S
C94         C350   1.445       .  S
C94          C95   1.399       .  A
C94          C99   1.409       .  A
C95          C96   1.402       .  A
C95         H100   1.084       .  S
C96          C97   1.402       .  A
C96         C306   1.484       .  S
C97          C98   1.400       .  A
C97         H101   1.084       .  S
C98         C278   1.445       .  S
C98          C99   1.409       .  A
C99         H102   1.084       .  S
C103        C275   1.435       .  S
C103        C104   1.403       .  A
C103        C108   1.397       .  A
C104        C105   1.404       .  A
C104        H109   1.084       .  S
C105        C367   1.438       .  S
C105        C106   1.399       .  A
C106        C107   1.401       .  A
C106        H110   1.084       .  S
C107        C108   1.399       .  A
C107        C266   1.478       .  S
C108        H111   1.085       .  S
C112        C263   1.437       .  S
C112        C113   1.403       .  A
C112        C117   1.399       .  A
C113        C114   1.403       .  A
C113        H118   1.084       .  S
C114        C370   1.438       .  S
C114        C115   1.399       .  A
C115        C116   1.402       .  A
C115        H119   1.084       .  S
C116        C117   1.402       .  A
C116        C254   1.482       .  S
C117        H120   1.084       .  S
C121        C866   1.411   1_545  A
C121       C1614   1.409       .  A
C121        C269   1.474       .  S
C122        C123   1.410       .  A
C122        C865   1.411       .  A
C122        C244   1.485       .  S
C123       C1612   1.412       .  A
C123        C234   1.480       .  S
C124       C1611   1.412   1_455  A
C124        C869   1.411       .  A
C124        C257   1.479       .  S
C125        C126   1.408       .  A
C125        C868   1.411   1_545  A
C125        C214   1.480       .  S
C126       C1609   1.409   1_455  A
C126        C224   1.482       .  S
C127        C212   1.442       .  S
C127        C128   1.408       .  A
C127        C132   1.398       .  A
C128        C129   1.408       .  A
C128        H133   1.084       .  S
C129        C359   1.445       .  S
C129        C130   1.400       .  A
C130        C131   1.402       .  A
C130        H134   1.084       .  S
C131        C132   1.400       .  A
C131        C217   1.482       .  S
C132        H135   1.085       .  S
C136        C353   1.444       .  S
C136        C137   1.409       .  A
C136        C141   1.400       .  A
C137        C138   1.408       .  A
C137        H142   1.084       .  S
C138        C210   1.444       .  S
C138        C139   1.399       .  A
C139        C140   1.401       .  A
C139        H143   1.084       .  S
C140        C141   1.401       .  A
C140        C227   1.482       .  S
C141        H144   1.084       .  S
C145        C208   1.445       .  S
C145        C146   1.408       .  A
C145        C150   1.400       .  A
C146        C147   1.408       .  A
C146        H151   1.084       .  S
C147        C364   1.445       .  S
C147        C148   1.400       .  A
C148        C149   1.403       .  A
C148        H152   1.084       .  S
C149        C150   1.403       .  A
C149        C247   1.487       .  S
C150        H153   1.084       .  S
C154        C355   1.442       .  S
C154        C155   1.399       .  A
C154        C159   1.408       .  A
C155        C156   1.401       .  A
C155        H160   1.084       .  S
C156        C157   1.401       .  A
C156        C237   1.482       .  S
C157        C158   1.399       .  A
C157        H161   1.084       .  S
C158        C206   1.443       .  S
C158        C159   1.408       .  A
C159        H162   1.084       .  S
O163       Ni915   1.918       .  S
O163        C173   1.281       .  A
O164       Ni171   1.919       .  S
O164        C174   1.279       .  A
O165       Ni915   1.922       .  S
O165        C175   1.281       .  A
O166       Ni171   1.924       .  S
O166        C176   1.280       .  A
O167       Ni916   1.922   1_545  S
O167        C176   1.281       .  A
O168       Ni172   1.923       .  S
O168        C175   1.280       .  A
O169       Ni916   1.920   1_545  S
O169        C174   1.281       .  A
O170       Ni172   1.922       .  S
O170        C173   1.280       .  A
Ni171       O907   1.918   1_545  S
Ni171       O909   1.922   1_545  S
Ni171      Ni916   2.393   1_545  S
Ni172       O911   1.922       .  S
Ni172       O913   1.920       .  S
Ni172      Ni915   2.393       .  S
C173        C284   1.439       .  S
C174        C211   1.438       .  S
C175        C207   1.441       .  S
C176        C280   1.443       .  S
O177       Ni929   1.915       .  S
O177        C187   1.280       .  A
O178       Ni557   1.915       .  S
O178        C188   1.278       .  A
O179      Ni1301   1.915       .  S
O179        C189   1.280       .  A
O180       Ni185   1.918       .  S
O180        C190   1.279       .  A
O181      Ni1302   1.917   1_545  S
O181        C190   1.281       .  A
O182       Ni186   1.917       .  S
O182        C189   1.279       .  A
O183       Ni930   1.915   1_545  S
O183        C188   1.280       .  A
O184       Ni558   1.917       .  S
O184        C187   1.279       .  A
Ni185       O921   1.915   1_545  S
Ni185       O550   1.915   1_554  S
Ni185      O1295   1.915   1_544  S
Ni185     Ni1302   2.395   1_545  S
Ni186      O1297   1.917       .  S
Ni186       O927   1.915       .  S
Ni186       O556   1.917       .  S
Ni186     Ni1301   2.395       .  S
C187        C335   1.433       .  S
C188        C276   1.431       .  S
C189        C264   1.433       .  S
C190        C348   1.435       .  S
O191       Ni199   1.922       .  S
O191        C201   1.280       .  A
O192       Ni199   1.921       .  S
O192        C202   1.281       .  A
O193       Ni199   1.923       .  S
O193        C203   1.280       .  A
O194       Ni199   1.920       .  S
O194        C204   1.281       .  A
O195       Ni200   1.920       .  S
O195        C204   1.279       .  A
O196       Ni200   1.918       .  S
O196        C203   1.281       .  A
O197       Ni200   1.924       .  S
O197        C202   1.280       .  A
O198       Ni200   1.921       .  S
O198        C201   1.281       .  A
Ni199      Ni200   2.393       .  S
C201        C209   1.440       .  S
C202        C277   1.441       .  S
C203        C281   1.439       .  S
C204        C205   1.439       .  S
C205        C206   1.208       .  T
C207        C208   1.209       .  T
C209        C210   1.209       .  T
C211        C212   1.208       .  T
C213        C214   1.400       .  A
C213        C218   1.396       .  A
C213        H963   1.083       .  S
C214        C215   1.401       .  A
C215        C216   1.395       .  A
C215        H220   1.083       .  S
C216        C217   1.406       .  A
C216        H221   1.082       .  S
C217        C218   1.407       .  A
C218        H222   1.082       .  S
H219        C957   1.083       .  S
C223        C224   1.401       .  A
C223        C228   1.396       .  A
C223       H1717   1.083       .  S
C224        C225   1.401       .  A
C225        C226   1.395       .  A
C225        H230   1.083       .  S
C226        C227   1.407       .  A
C226        H231   1.083       .  S
C227        C228   1.407       .  A
C228        H232   1.083       .  S
H229       C1711   1.083       .  S
C233        C234   1.401       .  A
C233        C238   1.395       .  A
C233        H239   1.083       .  S
C234        C235   1.400       .  A
C235        C236   1.395       .  A
C235        H240   1.083       .  S
C236        C237   1.407       .  A
C236        H241   1.083       .  S
C237        C238   1.406       .  A
C238        H242   1.083       .  S
C243        C244   1.401       .  A
C243        C248   1.397       .  A
C243        H993   1.083       .  S
C244        C245   1.401       .  A
C245        C246   1.396       .  A
C245        H250   1.083       .  S
C246        C247   1.408       .  A
C246        H251   1.082       .  S
C247        C248   1.408       .  A
C248        H252   1.082       .  S
H249        C987   1.083       .  S
C253        C254   1.407       .  A
C253        C258   1.394       .  A
C253        H259   1.082       .  S
C254        C255   1.407       .  A
C255        C256   1.394       .  A
C255        H260   1.082       .  S
C256        C257   1.400       .  A
C256       H1749   1.083       .  S
C257        C258   1.400       .  A
C258       H1006   1.083       .  S
H261       C1744   1.083       .  S
H262       C1002   1.083       .  S
C263        C264   1.205       .  T
C265        C266   1.407       .  A
C265        C270   1.393       .  A
C265        H271   1.082       .  S
C266        C267   1.405       .  A
C267        C268   1.393       .  A
C267        H272   1.082       .  S
C268        C269   1.400       .  A
C268       H1761   1.083       .  S
C269        C270   1.399       .  A
C270       H1018   1.083       .  S
H273       C1756   1.083       .  S
H274       C1014   1.083       .  S
C275        C276   1.203       .  T
C277        C278   1.210       .  T
C279        C280   1.211       .  T
C281        C282   1.208       .  T
C283        C284   1.208       .  T
C285        C286   1.404       .  A
C285        C290   1.396       .  A
C285       H1035   1.083       .  S
C286        C287   1.407       .  A
C287        C288   1.394       .  A
C287        H292   1.083       .  S
C288        C289   1.401       .  A
C288        H293   1.083       .  S
C289        C290   1.403       .  A
C290        H294   1.083       .  S
H291       C1029   1.083       .  S
C295        C296   1.403       .  A
C295        C300   1.397       .  A
C295       H1789   1.083       .  S
C296        C297   1.404       .  A
C297        C298   1.396       .  A
C297        H302   1.083       .  S
C298        C299   1.402       .  A
C298        H303   1.083       .  S
C299        C300   1.402       .  A
C300        H304   1.083       .  S
H301       C1783   1.083       .  S
C305        C306   1.409       .  A
C305        C310   1.396       .  A
C305        H311   1.082       .  S
C306        C307   1.409       .  A
C307        C308   1.396       .  A
C307        H312   1.082       .  S
C308        C309   1.404       .  A
C308       H1801   1.083       .  S
C309        C310   1.410       .  A
C310        H314   1.083       .  S
H313       C1796   1.083       .  S
C315        C316   1.426       .  A
C315        C320   1.403       .  A
C315       H1065   1.064       .  S
C316        C317   1.421       .  A
C317        C318   1.389       .  A
C317        H322   1.058       .  S
C318        C319   1.391       .  A
C318        H323   1.084       .  S
C319        C320   1.395       .  A
C320        H324   1.084       .  S
H321       C1059   1.065   1_545  S
C325        C326   1.395       .  A
C325        C330   1.391       .  A
C325        H331   1.082       .  S
C326        C327   1.392       .  A
C327        C328   1.394       .  A
C327        H332   1.084       .  S
C328        C329   1.426       .  A
C328       H1077   1.055       .  S
C329        C330   1.418       .  A
C330       H1822   1.060       .  S
H333       C1072   1.056   1_545  S
H334       C1818   1.060       .  S
C335        C336   1.205       .  T
C337        C338   1.401       .  A
C337        C342   1.395       .  A
C337        H343   1.083       .  S
C338        C339   1.398       .  A
C339        C340   1.390       .  A
C339        H344   1.083       .  S
C340        C341   1.408       .  A
C340       H1833   1.083       .  S
C341        C342   1.402       .  A
C342       H1090   1.083       .  S
H345       C1828   1.083       .  S
H346       C1086   1.083       .  S
C347        C348   1.206       .  T
C349        C350   1.209       .  T
C351        C352   1.208       .  T
C353        C354   1.209       .  T
C355        C356   1.208       .  T
C357        C358   1.208       .  T
C359        C360   1.209       .  T
C361        C362   1.210       .  T
C363        C364   1.209       .  T
C365        C366   1.204       .  T
C367        C368   1.205       .  T
C369        C370   1.205       .  T
C371        C372   1.204       .  T
O373       Ni381   1.921       .  S
O373        C383   1.280       .  A
O374      Ni1869   1.920   1_455  S
O374        C384   1.282       .  A
O375       Ni381   1.913       .  S
O375        C385   1.277       .  A
O376      Ni1869   1.912   1_455  S
O376        C386   1.279       .  A
O377       Ni382   1.920       .  S
O377        C386   1.280       .  A
O378      Ni1870   1.918       .  S
O378        C385   1.281       .  A
O379       Ni382   1.912       .  S
O379        C384   1.277       .  A
O380      Ni1870   1.911       .  S
O380        C383   1.279       .  A
Ni381      O1862   1.920       .  S
Ni381      O1864   1.912       .  S
Ni381     Ni1870   2.395       .  S
Ni382      O1866   1.918   1_455  S
Ni382      O1868   1.911   1_455  S
Ni382     Ni1869   2.395   1_455  S
C383        C740   1.433       .  S
C384        C744   1.433       .  S
C385        C737   1.432       .  S
C386        C741   1.433       .  S
O387       Ni395   1.923       .  S
O387        C397   1.282       .  A
O388        C398   1.281       .  A
O389        C399   1.280       .  A
O390       Ni395   1.920       .  S
O390        C400   1.279       .  A
O391       Ni396   1.925       .  S
O391        C400   1.283       .  A
O392        C399   1.281       .  A
O393        C398   1.280       .  A
O394       Ni396   1.919       .  S
O394        C397   1.278       .  A
Ni395      Ni396   2.392       .  S
C397        C730   1.439       .  S
C398        C735   1.441       .  S
C399        C732   1.440       .  S
C400        C734   1.442       .  S
O401      Ni1525   1.921       .  S
O401        C411   1.281       .  A
O402       Ni409   1.922       .  S
O402        C412   1.280       .  A
O403      Ni1897   1.920       .  S
O403        C413   1.281       .  A
O404        C414   1.280       .  A
O405      Ni1526   1.918   1_455  S
O405        C414   1.281       .  A
O406       Ni410   1.920   1_556  S
O406        C413   1.279       .  A
O407      Ni1898   1.921   1_456  S
O407        C412   1.281       .  A
O408        C411   1.280       .  A
Ni409      O1517   1.921   1_456  S
Ni409      O1891   1.920   1_455  S
Ni409     Ni1898   2.393   1_456  S
Ni410      O1521   1.918       .  S
Ni410      O1895   1.921   1_554  S
Ni410     Ni1897   2.393   1_554  S
C411        C721   1.441       .  S
C412        C726   1.440       .  S
C413        C728   1.438       .  S
C414        C724   1.439       .  S
C415        C719   1.439       .  S
C415        C416   1.407       .  A
C415        C420   1.398       .  A
C416        C417   1.407       .  A
C416        H421   1.084       .  S
C417        C738   1.435       .  S
C417        C418   1.396       .  A
C418        C419   1.391       .  A
C418        H422   1.085       .  S
C419        C420   1.396       .  A
C419        C710   1.458       .  S
C420        H423   1.085       .  S
C424        C708   1.437       .  S
C424        C425   1.404       .  A
C424        C429   1.400       .  A
C425        C426   1.403       .  A
C425        H430   1.084       .  S
C426        C743   1.436       .  S
C426        C427   1.394       .  A
C427        C428   1.400       .  A
C427        H431   1.083       .  S
C428        C429   1.403       .  A
C428        C698   1.484       .  S
C429        H432   1.084       .  S
C433       C1178   1.435   1_545  A
C433       C1926   1.406       .  A
C433        C713   1.476       .  S
C434       C1177   1.435       .  A
C434        C435   1.461       .  A
C434        C688   1.583       .  S
C435       C1924   1.463       .  A
C435        C681   1.460       .  S
C436       C1923   1.463   1_455  A
C436       C1181   1.435       .  A
C436        C701   1.580       .  S
C437       C1180   1.435   1_545  A
C437        C438   1.403       .  A
C437        C658   1.475       .  S
C438       C1921   1.406   1_455  A
C438        C668   1.497       .  S
C439        C655   1.443       .  S
C439        C440   1.411       .  A
C439        C444   1.403       .  A
C440        C441   1.408       .  A
C440        H445   1.084       .  S
C441        C733   1.444       .  S
C441        C442   1.395       .  A
C442        C443   1.401       .  A
C442        H446   1.084       .  S
C443        C444   1.400       .  A
C443        C691   1.482       .  S
C444        H447   1.085       .  S
C448        C723   1.443       .  S
C448        C449   1.400       .  A
C448        C453   1.409       .  A
C449        C450   1.397       .  A
C449        H454   1.085       .  S
C450        C451   1.397       .  A
C450        C671   1.469       .  S
C451        C452   1.400       .  A
C451        H455   1.085       .  S
C452        C654   1.443       .  S
C452        C453   1.409       .  A
C453        H456   1.084       .  S
C457        C651   1.447       .  S
C457        C458   1.401       .  A
C457        C462   1.412       .  A
C458        C459   1.398       .  A
C458        H463   1.085       .  S
C459        C460   1.392       .  A
C459        C661   1.464       .  S
C460        C461   1.397       .  A
C460        H464   1.085       .  S
C461        C729   1.442       .  S
C461        C462   1.411       .  A
C462        H465   1.084       .  S
C466        C722   1.445       .  S
C466        C467   1.399       .  A
C466        C471   1.409       .  A
C467        C468   1.402       .  A
C467        H472   1.084       .  S
C468        C469   1.402       .  A
C468        C678   1.484       .  S
C469        C470   1.400       .  A
C469        H473   1.084       .  S
C470        C650   1.445       .  S
C470        C471   1.409       .  A
C471        H474   1.084       .  S
C475        C647   1.435       .  S
C475        C476   1.403       .  A
C475        C480   1.397       .  A
C476        C477   1.404       .  A
C476        H481   1.084       .  S
C477        C739   1.438       .  S
C477        C478   1.399       .  A
C478        C479   1.401       .  A
C478        H482   1.084       .  S
C479        C480   1.399       .  A
C479        C638   1.478       .  S
C480        H483   1.085       .  S
C484        C635   1.437       .  S
C484        C485   1.403       .  A
C484        C489   1.399       .  A
C485        C486   1.403       .  A
C485        H490   1.084       .  S
C486        C742   1.438       .  S
C486        C487   1.399       .  A
C487        C488   1.402       .  A
C487        H491   1.084       .  S
C488        C489   1.402       .  A
C488        C626   1.482       .  S
C489        H492   1.084       .  S
C493       C1238   1.411   1_545  A
C493       C1986   1.409       .  A
C493        C641   1.474       .  S
C494       C1237   1.411       .  A
C494        C495   1.410       .  A
C494        C616   1.485       .  S
C495       C1984   1.412       .  A
C495        C606   1.480       .  S
C496       C1983   1.412   1_455  A
C496       C1241   1.411       .  A
C496        C629   1.479       .  S
C497       C1240   1.411   1_545  A
C497        C498   1.408       .  A
C497        C586   1.480       .  S
C498       C1981   1.409   1_455  A
C498        C596   1.482       .  S
C499        C584   1.442       .  S
C499        C500   1.408       .  A
C499        C504   1.398       .  A
C500        C501   1.408       .  A
C500        H505   1.084       .  S
C501        C731   1.445       .  S
C501        C502   1.400       .  A
C502        C503   1.402       .  A
C502        H506   1.084       .  S
C503        C504   1.400       .  A
C503        C589   1.482       .  S
C504        H507   1.085       .  S
C508        C725   1.444       .  S
C508        C509   1.409       .  A
C508        C513   1.400       .  A
C509        C510   1.408       .  A
C509        H514   1.084       .  S
C510        C582   1.444       .  S
C510        C511   1.399       .  A
C511        C512   1.401       .  A
C511        H515   1.084       .  S
C512        C513   1.401       .  A
C512        C599   1.482       .  S
C513        H516   1.084       .  S
C517        C580   1.445       .  S
C517        C518   1.408       .  A
C517        C522   1.400       .  A
C518        C519   1.408       .  A
C518        H523   1.084       .  S
C519        C736   1.445       .  S
C519        C520   1.400       .  A
C520        C521   1.403       .  A
C520        H524   1.084       .  S
C521        C522   1.403       .  A
C521        C619   1.487       .  S
C522        H525   1.084       .  S
C526        C727   1.442       .  S
C526        C527   1.399       .  A
C526        C531   1.408       .  A
C527        C528   1.401       .  A
C527        H532   1.084       .  S
C528        C529   1.401       .  A
C528        C609   1.482       .  S
C529        C530   1.399       .  A
C529        H533   1.084       .  S
C530        C578   1.443       .  S
C530        C531   1.408       .  A
C531        H534   1.084       .  S
O535      Ni1287   1.918       .  S
O535        C545   1.281       .  A
O536       Ni543   1.919       .  S
O536        C546   1.279       .  A
O537      Ni1287   1.922       .  S
O537        C547   1.281       .  A
O538       Ni543   1.924       .  S
O538        C548   1.280       .  A
O539      Ni1288   1.922   1_545  S
O539        C548   1.281       .  A
O540       Ni544   1.923       .  S
O540        C547   1.280       .  A
O541      Ni1288   1.920   1_545  S
O541        C546   1.281       .  A
O542       Ni544   1.922       .  S
O542        C545   1.280       .  A
Ni543      O1279   1.918   1_545  S
Ni543      O1281   1.922   1_545  S
Ni543     Ni1288   2.393   1_545  S
Ni544      O1283   1.922       .  S
Ni544      O1285   1.920       .  S
Ni544     Ni1287   2.393       .  S
C545        C656   1.439       .  S
C546        C583   1.438       .  S
C547        C579   1.441       .  S
C548        C652   1.443       .  S
O549      Ni1301   1.915       .  S
O549        C559   1.280       .  A
O550        C560   1.278       .  A
O551       Ni929   1.915   1_556  S
O551        C561   1.280       .  A
O552       Ni557   1.918       .  S
O552        C562   1.279       .  A
O553       Ni930   1.917   1_545  S
O553        C562   1.281       .  A
O554       Ni558   1.917   1_556  S
O554        C561   1.279       .  A
O555      Ni1302   1.915   1_546  S
O555        C560   1.280       .  A
O556        C559   1.279       .  A
Ni557      O1293   1.915   1_545  S
Ni557       O923   1.915   1_545  S
Ni557      Ni930   2.395   1_545  S
Ni558       O925   1.917       .  S
Ni558      O1299   1.915   1_554  S
Ni558      Ni929   2.395       .  S
C559        C707   1.433       .  S
C560        C648   1.431       .  S
C561        C636   1.433       .  S
C562        C720   1.435       .  S
O563       Ni571   1.922       .  S
O563        C573   1.280       .  A
O564       Ni571   1.921       .  S
O564        C574   1.281       .  A
O565       Ni571   1.923       .  S
O565        C575   1.280       .  A
O566       Ni571   1.920       .  S
O566        C576   1.281       .  A
O567       Ni572   1.920       .  S
O567        C576   1.279       .  A
O568       Ni572   1.918       .  S
O568        C575   1.281       .  A
O569       Ni572   1.924       .  S
O569        C574   1.280       .  A
O570       Ni572   1.921       .  S
O570        C573   1.281       .  A
Ni571      Ni572   2.393       .  S
C573        C581   1.440       .  S
C574        C649   1.441       .  S
C575        C653   1.439       .  S
C576        C577   1.439       .  S
C577        C578   1.208       .  T
C579        C580   1.209       .  T
C581        C582   1.209       .  T
C583        C584   1.208       .  T
C585        C586   1.400       .  A
C585        C590   1.396       .  A
C585       H1335   1.083       .  S
C586        C587   1.401       .  A
C587        C588   1.395       .  A
C587        H592   1.083       .  S
C588        C589   1.406       .  A
C588        H593   1.082       .  S
C589        C590   1.407       .  A
C590        H594   1.082       .  S
H591       C1329   1.083       .  S
C595        C596   1.401       .  A
C595        C600   1.396       .  A
C595       H2089   1.083       .  S
C596        C597   1.401       .  A
C597        C598   1.395       .  A
C597        H602   1.083       .  S
C598        C599   1.407       .  A
C598        H603   1.083       .  S
C599        C600   1.407       .  A
C600        H604   1.083       .  S
H601       C2083   1.083       .  S
C605        C606   1.401       .  A
C605        C610   1.395       .  A
C605        H611   1.083       .  S
C606        C607   1.400       .  A
C607        C608   1.395       .  A
C607        H612   1.083       .  S
C608        C609   1.407       .  A
C608        H613   1.083       .  S
C609        C610   1.406       .  A
C610        H614   1.083       .  S
C615        C616   1.401       .  A
C615        C620   1.397       .  A
C615       H1365   1.083       .  S
C616        C617   1.401       .  A
C617        C618   1.396       .  A
C617        H622   1.083       .  S
C618        C619   1.408       .  A
C618        H623   1.082       .  S
C619        C620   1.408       .  A
C620        H624   1.082       .  S
H621       C1359   1.083       .  S
C625        C626   1.407       .  A
C625        C630   1.394       .  A
C625        H631   1.082       .  S
C626        C627   1.407       .  A
C627        C628   1.394       .  A
C627        H632   1.082       .  S
C628        C629   1.400       .  A
C628       H2121   1.083       .  S
C629        C630   1.400       .  A
C630       H1378   1.083       .  S
H633       C2116   1.083       .  S
H634       C1374   1.083       .  S
C635        C636   1.205       .  T
C637        C638   1.407       .  A
C637        C642   1.393       .  A
C637        H643   1.082       .  S
C638        C639   1.405       .  A
C639        C640   1.393       .  A
C639        H644   1.082       .  S
C640        C641   1.400       .  A
C640       H2133   1.083       .  S
C641        C642   1.399       .  A
C642       H1390   1.083       .  S
H645       C2128   1.083       .  S
H646       C1386   1.083       .  S
C647        C648   1.203       .  T
C649        C650   1.210       .  T
C651        C652   1.211       .  T
C653        C654   1.208       .  T
C655        C656   1.208       .  T
C657        C658   1.404       .  A
C657        C662   1.396       .  A
C657       H1407   1.083       .  S
C658        C659   1.407       .  A
C659        C660   1.394       .  A
C659        H664   1.083       .  S
C660        C661   1.401       .  A
C660        H665   1.083       .  S
C661        C662   1.403       .  A
C662        H666   1.083       .  S
H663       C1401   1.083       .  S
C667        C668   1.403       .  A
C667        C672   1.397       .  A
C667       H2161   1.083       .  S
C668        C669   1.404       .  A
C669        C670   1.396       .  A
C669        H674   1.083       .  S
C670        C671   1.402       .  A
C670        H675   1.083       .  S
C671        C672   1.402       .  A
C672        H676   1.083       .  S
H673       C2155   1.083       .  S
C677        C678   1.409       .  A
C677        C682   1.396       .  A
C677        H683   1.082       .  S
C678        C679   1.409       .  A
C679        C680   1.396       .  A
C679        H684   1.082       .  S
C680        C681   1.404       .  A
C680       H2173   1.083       .  S
C681        C682   1.410       .  A
C682        H686   1.083       .  S
H685       C2168   1.083       .  S
C687        C688   1.426       .  A
C687        C692   1.403       .  A
C687       H1437   1.064       .  S
C688        C689   1.421       .  A
C689        C690   1.389       .  A
C689        H694   1.058       .  S
C690        C691   1.391       .  A
C690        H695   1.084       .  S
C691        C692   1.395       .  A
C692        H696   1.084       .  S
H693       C1431   1.065   1_545  S
C697        C698   1.395       .  A
C697        C702   1.391       .  A
C697        H703   1.082       .  S
C698        C699   1.392       .  A
C699        C700   1.394       .  A
C699        H704   1.084       .  S
C700        C701   1.426       .  A
C700       H1449   1.055       .  S
C701        C702   1.418       .  A
C702       H2194   1.060       .  S
H705       C1444   1.056   1_545  S
H706       C2190   1.060       .  S
C707        C708   1.205       .  T
C709        C710   1.401       .  A
C709        C714   1.395       .  A
C709        H715   1.083       .  S
C710        C711   1.398       .  A
C711        C712   1.390       .  A
C711        H716   1.083       .  S
C712        C713   1.408       .  A
C712       H2205   1.083       .  S
C713        C714   1.402       .  A
C714       H1462   1.083       .  S
H717       C2200   1.083       .  S
H718       C1458   1.083       .  S
C719        C720   1.206       .  T
C721        C722   1.209       .  T
C723        C724   1.208       .  T
C725        C726   1.209       .  T
C727        C728   1.208       .  T
C729        C730   1.208       .  T
C731        C732   1.209       .  T
C733        C734   1.210       .  T
C735        C736   1.209       .  T
C737        C738   1.204       .  T
C739        C740   1.205       .  T
C741        C742   1.205       .  T
C743        C744   1.204       .  T
O745       Ni753   1.921       .  S
O745        C755   1.280       .  A
O746      Ni2241   1.920   1_455  S
O746        C756   1.282       .  A
O747       Ni753   1.913       .  S
O747        C757   1.277       .  A
O748      Ni2241   1.912   1_455  S
O748        C758   1.279       .  A
O749       Ni754   1.920       .  S
O749        C758   1.280       .  A
O750      Ni2242   1.918       .  S
O750        C757   1.281       .  A
O751       Ni754   1.912       .  S
O751        C756   1.277       .  A
O752      Ni2242   1.911       .  S
O752        C755   1.279       .  A
Ni753      O2234   1.920       .  S
Ni753      O2236   1.912       .  S
Ni753     Ni2242   2.395       .  S
Ni754      O2238   1.918   1_455  S
Ni754      O2240   1.911   1_455  S
Ni754     Ni2241   2.395   1_455  S
C755       C1112   1.433       .  S
C756       C1116   1.433       .  S
C757       C1109   1.432       .  S
C758       C1113   1.433       .  S
O759       Ni767   1.923   1_554  S
O759        C769   1.282       .  A
O760      Ni1139   1.926       .  S
O760        C770   1.281       .  A
O761      Ni1139   1.917       .  S
O761        C771   1.280       .  A
O762       Ni767   1.920   1_554  S
O762        C772   1.279       .  A
O763       Ni768   1.925   1_554  S
O763        C772   1.283       .  A
O764      Ni1140   1.926       .  S
O764        C771   1.281       .  A
O765      Ni1140   1.917       .  S
O765        C770   1.280       .  A
O766       Ni768   1.919   1_554  S
O766        C769   1.278       .  A
Ni767      O1132   1.926       .  S
Ni767      O1133   1.917       .  S
Ni767      Ni768   2.392       .  S
Ni768      O1136   1.926       .  S
Ni768      O1137   1.917       .  S
C769       C1102   1.439       .  S
C770       C1107   1.441       .  S
C771       C1104   1.440       .  S
C772       C1106   1.442       .  S
O773      Ni2641   1.921   1_554  S
O773        C783   1.281       .  A
O774       Ni781   1.922       .  S
O774        C784   1.280       .  A
O775      Ni2269   1.920       .  S
O775        C785   1.281       .  A
O776      Ni1153   1.922   1_554  S
O776        C786   1.280       .  A
O777      Ni2642   1.918   1_455  S
O777        C786   1.281       .  A
O778       Ni782   1.920       .  S
O778        C785   1.279       .  A
O779      Ni2270   1.921   1_455  S
O779        C784   1.281       .  A
O780      Ni1154   1.923       .  S
O780        C783   1.280       .  A
Ni781      O2633   1.921   1_455  S
Ni781      O2263   1.920   1_455  S
Ni781      O1148   1.922       .  S
Ni781     Ni2270   2.393   1_455  S
Ni782      O2637   1.918       .  S
Ni782      O2267   1.921       .  S
Ni782      O1152   1.923       .  S
Ni782     Ni2269   2.393       .  S
C783       C1093   1.441       .  S
C784       C1098   1.440       .  S
C785       C1100   1.438       .  S
C786       C1096   1.439       .  S
C787       C1091   1.439       .  S
C787        C788   1.407       .  A
C787        C792   1.398       .  A
C788        C789   1.407       .  A
C788        H793   1.084       .  S
C789       C1110   1.435       .  S
C789        C790   1.396       .  A
C790        C791   1.391       .  A
C790        H794   1.085       .  S
C791        C792   1.396       .  A
C791       C1082   1.458       .  S
C792        H795   1.085       .  S
C796       C1080   1.437       .  S
C796        C797   1.405       .  A
C796        C801   1.400       .  A
C797        C798   1.403       .  A
C797        H802   1.084       .  S
C798       C1115   1.436       .  S
C798        C799   1.394       .  A
C799        C800   1.400       .  A
C799        H803   1.083       .  S
C800        C801   1.403       .  A
C800       C1070   1.483       .  S
C801        H804   1.084       .  S
C805       C2298   1.406       .  A
C805       C1085   1.475       .  S
C806        C807   1.461       .  A
C806       C1060   1.583       .  S
C807       C2296   1.463       .  A
C807       C1053   1.460       .  S
C808       C2295   1.463   1_455  A
C808       C1073   1.580       .  S
C809        C810   1.403       .  A
C809       C1030   1.475       .  S
C810       C2293   1.406   1_455  A
C810       C1040   1.497       .  S
C811       C1027   1.443       .  S
C811        C812   1.411       .  A
C811        C816   1.403       .  A
C812        C813   1.408       .  A
C812        H817   1.084       .  S
C813       C1105   1.444       .  S
C813        C814   1.395       .  A
C814        C815   1.401       .  A
C814        H818   1.084       .  S
C815        C816   1.400       .  A
C815       C1063   1.481       .  S
C816        H819   1.085       .  S
C820       C1095   1.443       .  S
C820        C821   1.400       .  A
C820        C825   1.409       .  A
C821        C822   1.397       .  A
C821        H826   1.085       .  S
C822        C823   1.397       .  A
C822       C1043   1.469       .  S
C823        C824   1.400       .  A
C823        H827   1.085       .  S
C824       C1026   1.443       .  S
C824        C825   1.409       .  A
C825        H828   1.084       .  S
C829       C1023   1.447       .  S
C829        C830   1.401       .  A
C829        C834   1.412       .  A
C830        C831   1.398       .  A
C830        H835   1.085       .  S
C831        C832   1.392       .  A
C831       C1033   1.464       .  S
C832        C833   1.397       .  A
C832        H836   1.085       .  S
C833       C1101   1.442       .  S
C833        C834   1.411       .  A
C834        H837   1.084       .  S
C838       C1094   1.445       .  S
C838        C839   1.399       .  A
C838        C843   1.409       .  A
C839        C840   1.402       .  A
C839        H844   1.084       .  S
C840        C841   1.402       .  A
C840       C1050   1.484       .  S
C841        C842   1.400       .  A
C841        H845   1.084       .  S
C842       C1022   1.445       .  S
C842        C843   1.409       .  A
C843        H846   1.084       .  S
C847       C1019   1.435       .  S
C847        C848   1.403       .  A
C847        C852   1.397       .  A
C848        C849   1.404       .  A
C848        H853   1.084       .  S
C849       C1111   1.438       .  S
C849        C850   1.399       .  A
C850        C851   1.401       .  A
C850        H854   1.084       .  S
C851        C852   1.399       .  A
C851       C1010   1.478       .  S
C852        H855   1.085       .  S
C856       C1007   1.437       .  S
C856        C857   1.403       .  A
C856        C861   1.399       .  A
C857        C858   1.403       .  A
C857        H862   1.084       .  S
C858       C1114   1.438       .  S
C858        C859   1.399       .  A
C859        C860   1.402       .  A
C859        H863   1.084       .  S
C860        C861   1.402       .  A
C860        C998   1.482       .  S
C861        H864   1.084       .  S
C865       C2358   1.409       .  A
C865       C1013   1.474       .  S
C866        C867   1.410       .  A
C866        C988   1.485       .  S
C867       C2356   1.412       .  A
C867        C978   1.480       .  S
C868       C2355   1.412   1_455  A
C868       C1001   1.479       .  S
C869        C870   1.408       .  A
C869        C958   1.480       .  S
C870       C2353   1.409   1_455  A
C870        C968   1.482       .  S
C871        C956   1.442       .  S
C871        C872   1.408       .  A
C871        C876   1.398       .  A
C872        C873   1.408       .  A
C872        H877   1.084       .  S
C873       C1103   1.445       .  S
C873        C874   1.400       .  A
C874        C875   1.402       .  A
C874        H878   1.084       .  S
C875        C876   1.400       .  A
C875        C961   1.482       .  S
C876        H879   1.085       .  S
C880       C1097   1.444       .  S
C880        C881   1.409       .  A
C880        C885   1.400       .  A
C881        C882   1.408       .  A
C881        H886   1.084       .  S
C882        C954   1.444       .  S
C882        C883   1.399       .  A
C883        C884   1.401       .  A
C883        H887   1.084       .  S
C884        C885   1.401       .  A
C884        C971   1.482       .  S
C885        H888   1.084       .  S
C889        C952   1.445       .  S
C889        C890   1.408       .  A
C889        C894   1.400       .  A
C890        C891   1.408       .  A
C890        H895   1.084       .  S
C891       C1108   1.445       .  S
C891        C892   1.400       .  A
C892        C893   1.403       .  A
C892        H896   1.084       .  S
C893        C894   1.403       .  A
C893        C991   1.487       .  S
C894        H897   1.084       .  S
C898       C1099   1.442       .  S
C898        C899   1.399       .  A
C898        C903   1.408       .  A
C899        C900   1.401       .  A
C899        H904   1.084       .  S
C900        C901   1.401       .  A
C900        C981   1.482       .  S
C901        C902   1.399       .  A
C901        H905   1.084       .  S
C902        C950   1.443       .  S
C902        C903   1.408       .  A
C903        H906   1.084       .  S
O907        C917   1.281       .  A
O908       Ni915   1.919       .  S
O908        C918   1.279       .  A
O909        C919   1.281       .  A
O910       Ni915   1.924       .  S
O910        C920   1.280       .  A
O911        C920   1.281       .  A
O912       Ni916   1.923       .  S
O912        C919   1.280       .  A
O913        C918   1.281       .  A
O914       Ni916   1.922       .  S
O914        C917   1.280       .  A
C917       C1028   1.439       .  S
C918        C955   1.438       .  S
C919        C951   1.441       .  S
C920       C1024   1.443       .  S
O921        C931   1.280       .  A
O922      Ni1301   1.915       .  S
O922        C932   1.278       .  A
O923        C933   1.280       .  A
O924       Ni929   1.918       .  S
O924        C934   1.279       .  A
O925        C934   1.281       .  A
O926       Ni930   1.917       .  S
O926        C933   1.279       .  A
O927        C932   1.280       .  A
O928      Ni1302   1.916       .  S
O928        C931   1.279       .  A
Ni929      O1294   1.915   1_554  S
Ni930      O1300   1.916       .  S
C931       C1079   1.432       .  S
C932       C1020   1.431       .  S
C933       C1008   1.433       .  S
C934       C1092   1.435       .  S
O935       Ni943   1.922       .  S
O935        C945   1.280       .  A
O936       Ni943   1.921       .  S
O936        C946   1.281       .  A
O937       Ni943   1.923       .  S
O937        C947   1.280       .  A
O938       Ni943   1.920       .  S
O938        C948   1.281       .  A
O939       Ni944   1.920       .  S
O939        C948   1.279       .  A
O940       Ni944   1.918       .  S
O940        C947   1.281       .  A
O941       Ni944   1.924       .  S
O941        C946   1.280       .  A
O942       Ni944   1.921       .  S
O942        C945   1.281       .  A
Ni943      Ni944   2.393       .  S
C945        C953   1.440       .  S
C946       C1021   1.441       .  S
C947       C1025   1.439       .  S
C948        C949   1.439       .  S
C949        C950   1.208       .  T
C951        C952   1.209       .  T
C953        C954   1.209       .  T
C955        C956   1.208       .  T
C957        C958   1.400       .  A
C957        C962   1.396       .  A
C958        C959   1.401       .  A
C959        C960   1.395       .  A
C959        H964   1.083       .  S
C960        C961   1.406       .  A
C960        H965   1.082       .  S
C961        C962   1.407       .  A
C962        H966   1.082       .  S
C967        C968   1.401       .  A
C967        C972   1.396       .  A
C967       H2461   1.083       .  S
C968        C969   1.401       .  A
C969        C970   1.395       .  A
C969        H974   1.083       .  S
C970        C971   1.407       .  A
C970        H975   1.083       .  S
C971        C972   1.407       .  A
C972        H976   1.083       .  S
H973       C2455   1.083       .  S
C977        C978   1.401       .  A
C977        C982   1.395       .  A
C977        H983   1.083       .  S
C978        C979   1.400       .  A
C979        C980   1.395       .  A
C979        H984   1.083       .  S
C980        C981   1.407       .  A
C980        H985   1.083       .  S
C981        C982   1.406       .  A
C982        H986   1.083       .  S
C987        C988   1.401       .  A
C987        C992   1.397       .  A
C988        C989   1.401       .  A
C989        C990   1.396       .  A
C989        H994   1.083       .  S
C990        C991   1.408       .  A
C990        H995   1.082       .  S
C991        C992   1.408       .  A
C992        H996   1.082       .  S
C997        C998   1.407       .  A
C997       C1002   1.394       .  A
C997       H1003   1.082       .  S
C998        C999   1.407       .  A
C999       C1000   1.394       .  A
C999       H1004   1.082       .  S
C1000      C1001   1.400       .  A
C1000      H2493   1.083       .  S
C1001      C1002   1.400       .  A
H1005      C2488   1.083       .  S
C1007      C1008   1.205       .  T
C1009      C1010   1.407       .  A
C1009      C1014   1.393       .  A
C1009      H1015   1.082       .  S
C1010      C1011   1.405       .  A
C1011      C1012   1.393       .  A
C1011      H1016   1.082       .  S
C1012      C1013   1.400       .  A
C1012      H2505   1.083       .  S
C1013      C1014   1.399       .  A
H1017      C2500   1.083       .  S
C1019      C1020   1.204       .  T
C1021      C1022   1.210       .  T
C1023      C1024   1.211       .  T
C1025      C1026   1.208       .  T
C1027      C1028   1.208       .  T
C1029      C1030   1.404       .  A
C1029      C1034   1.396       .  A
C1030      C1031   1.407       .  A
C1031      C1032   1.394       .  A
C1031      H1036   1.083       .  S
C1032      C1033   1.401       .  A
C1032      H1037   1.083       .  S
C1033      C1034   1.403       .  A
C1034      H1038   1.083       .  S
C1039      C1040   1.403       .  A
C1039      C1044   1.397       .  A
C1039      H2533   1.083       .  S
C1040      C1041   1.404       .  A
C1041      C1042   1.396       .  A
C1041      H1046   1.083       .  S
C1042      C1043   1.401       .  A
C1042      H1047   1.083       .  S
C1043      C1044   1.402       .  A
C1044      H1048   1.083       .  S
H1045      C2527   1.083       .  S
C1049      C1050   1.409       .  A
C1049      C1054   1.396       .  A
C1049      H1055   1.082       .  S
C1050      C1051   1.409       .  A
C1051      C1052   1.396       .  A
C1051      H1056   1.082       .  S
C1052      C1053   1.404       .  A
C1052      H2545   1.083       .  S
C1053      C1054   1.410       .  A
C1054      H1058   1.083       .  S
H1057      C2540   1.083       .  S
C1059      C1060   1.426       .  A
C1059      C1064   1.404       .  A
C1060      C1061   1.421       .  A
C1061      C1062   1.388       .  A
C1061      H1066   1.058       .  S
C1062      C1063   1.390       .  A
C1062      H1067   1.084       .  S
C1063      C1064   1.395       .  A
C1064      H1068   1.084       .  S
C1069      C1070   1.395       .  A
C1069      C1074   1.391       .  A
C1069      H1075   1.082       .  S
C1070      C1071   1.392       .  A
C1071      C1072   1.394       .  A
C1071      H1076   1.084       .  S
C1072      C1073   1.426       .  A
C1073      C1074   1.418       .  A
C1074      H2566   1.059       .  S
H1078      C2562   1.059       .  S
C1079      C1080   1.204       .  T
C1081      C1082   1.401       .  A
C1081      C1086   1.395       .  A
C1081      H1087   1.083       .  S
C1082      C1083   1.398       .  A
C1083      C1084   1.390       .  A
C1083      H1088   1.083       .  S
C1084      C1085   1.408       .  A
C1084      H2577   1.083       .  S
C1085      C1086   1.402       .  A
H1089      C2572   1.083       .  S
C1091      C1092   1.206       .  T
C1093      C1094   1.209       .  T
C1095      C1096   1.208       .  T
C1097      C1098   1.209       .  T
C1099      C1100   1.208       .  T
C1101      C1102   1.208       .  T
C1103      C1104   1.209       .  T
C1105      C1106   1.210       .  T
C1107      C1108   1.209       .  T
C1109      C1110   1.204       .  T
C1111      C1112   1.205       .  T
C1113      C1114   1.205       .  T
C1115      C1116   1.204       .  T
O1117     Ni1125   1.921       .  S
O1117      C1127   1.280       .  A
O1118     Ni2613   1.920   1_455  S
O1118      C1128   1.282       .  A
O1119     Ni1125   1.913       .  S
O1119      C1129   1.277       .  A
O1120     Ni2613   1.912   1_455  S
O1120      C1130   1.279       .  A
O1121     Ni1126   1.920       .  S
O1121      C1130   1.280       .  A
O1122     Ni2614   1.918       .  S
O1122      C1129   1.281       .  A
O1123     Ni1126   1.912       .  S
O1123      C1128   1.277       .  A
O1124     Ni2614   1.911       .  S
O1124      C1127   1.279       .  A
Ni1125     O2606   1.920       .  S
Ni1125     O2608   1.912       .  S
Ni1125    Ni2614   2.395       .  S
Ni1126     O2610   1.918   1_455  S
Ni1126     O2612   1.911   1_455  S
Ni1126    Ni2613   2.395   1_455  S
C1127      C1484   1.433       .  S
C1128      C1488   1.433       .  S
C1129      C1481   1.432       .  S
C1130      C1485   1.433       .  S
O1131     Ni1139   1.923       .  S
O1131      C1141   1.282       .  A
O1132      C1142   1.281       .  A
O1133      C1143   1.280       .  A
O1134     Ni1139   1.920       .  S
O1134      C1144   1.279       .  A
O1135     Ni1140   1.925       .  S
O1135      C1144   1.283       .  A
O1136      C1143   1.281       .  A
O1137      C1142   1.280       .  A
O1138     Ni1140   1.919       .  S
O1138      C1141   1.278       .  A
Ni1139    Ni1140   2.392       .  S
C1141      C1474   1.439       .  S
C1142      C1479   1.441       .  S
C1143      C1476   1.440       .  S
C1144      C1478   1.442       .  S
O1145     Ni2269   1.921       .  S
O1145      C1155   1.281       .  A
O1146     Ni1153   1.922       .  S
O1146      C1156   1.280       .  A
O1147     Ni2641   1.920       .  S
O1147      C1157   1.281       .  A
O1148      C1158   1.280       .  A
O1149     Ni2270   1.918   1_455  S
O1149      C1158   1.281       .  A
O1150     Ni1154   1.920   1_556  S
O1150      C1157   1.279       .  A
O1151     Ni2642   1.921   1_456  S
O1151      C1156   1.281       .  A
O1152      C1155   1.280       .  A
Ni1153     O2261   1.921   1_456  S
Ni1153     O2635   1.920   1_455  S
Ni1153    Ni2642   2.393   1_456  S
Ni1154     O2265   1.918       .  S
Ni1154     O2639   1.921   1_554  S
Ni1154    Ni2641   2.393   1_554  S
C1155      C1465   1.441       .  S
C1156      C1470   1.440       .  S
C1157      C1472   1.438       .  S
C1158      C1468   1.439       .  S
C1159      C1463   1.439       .  S
C1159      C1160   1.407       .  A
C1159      C1164   1.398       .  A
C1160      C1161   1.407       .  A
C1160      H1165   1.084       .  S
C1161      C1482   1.435       .  S
C1161      C1162   1.396       .  A
C1162      C1163   1.391       .  A
C1162      H1166   1.085       .  S
C1163      C1164   1.396       .  A
C1163      C1454   1.458       .  S
C1164      H1167   1.085       .  S
C1168      C1452   1.437       .  S
C1168      C1169   1.405       .  A
C1168      C1173   1.400       .  A
C1169      C1170   1.403       .  A
C1169      H1174   1.084       .  S
C1170      C1487   1.436       .  S
C1170      C1171   1.394       .  A
C1171      C1172   1.400       .  A
C1171      H1175   1.083       .  S
C1172      C1173   1.403       .  A
C1172      C1442   1.483       .  S
C1173      H1176   1.084       .  S
C1177      C2670   1.406       .  A
C1177      C1457   1.475       .  S
C1178      C1179   1.461       .  A
C1178      C1432   1.583       .  S
C1179      C2668   1.463       .  A
C1179      C1425   1.460       .  S
C1180      C2667   1.463   1_455  A
C1180      C1445   1.580       .  S
C1181      C1182   1.403       .  A
C1181      C1402   1.475       .  S
C1182      C2665   1.406   1_455  A
C1182      C1412   1.497       .  S
C1183      C1399   1.443       .  S
C1183      C1184   1.411       .  A
C1183      C1188   1.403       .  A
C1184      C1185   1.408       .  A
C1184      H1189   1.084       .  S
C1185      C1477   1.444       .  S
C1185      C1186   1.395       .  A
C1186      C1187   1.401       .  A
C1186      H1190   1.084       .  S
C1187      C1188   1.400       .  A
C1187      C1435   1.481       .  S
C1188      H1191   1.085       .  S
C1192      C1467   1.443       .  S
C1192      C1193   1.400       .  A
C1192      C1197   1.409       .  A
C1193      C1194   1.397       .  A
C1193      H1198   1.085       .  S
C1194      C1195   1.397       .  A
C1194      C1415   1.469       .  S
C1195      C1196   1.400       .  A
C1195      H1199   1.085       .  S
C1196      C1398   1.443       .  S
C1196      C1197   1.409       .  A
C1197      H1200   1.084       .  S
C1201      C1395   1.447       .  S
C1201      C1202   1.401       .  A
C1201      C1206   1.412       .  A
C1202      C1203   1.398       .  A
C1202      H1207   1.085       .  S
C1203      C1204   1.392       .  A
C1203      C1405   1.464       .  S
C1204      C1205   1.397       .  A
C1204      H1208   1.085       .  S
C1205      C1473   1.442       .  S
C1205      C1206   1.411       .  A
C1206      H1209   1.084       .  S
C1210      C1466   1.445       .  S
C1210      C1211   1.399       .  A
C1210      C1215   1.409       .  A
C1211      C1212   1.402       .  A
C1211      H1216   1.084       .  S
C1212      C1213   1.402       .  A
C1212      C1422   1.484       .  S
C1213      C1214   1.400       .  A
C1213      H1217   1.084       .  S
C1214      C1394   1.445       .  S
C1214      C1215   1.409       .  A
C1215      H1218   1.084       .  S
C1219      C1391   1.435       .  S
C1219      C1220   1.403       .  A
C1219      C1224   1.397       .  A
C1220      C1221   1.404       .  A
C1220      H1225   1.084       .  S
C1221      C1483   1.438       .  S
C1221      C1222   1.399       .  A
C1222      C1223   1.401       .  A
C1222      H1226   1.084       .  S
C1223      C1224   1.399       .  A
C1223      C1382   1.478       .  S
C1224      H1227   1.085       .  S
C1228      C1379   1.437       .  S
C1228      C1229   1.403       .  A
C1228      C1233   1.399       .  A
C1229      C1230   1.403       .  A
C1229      H1234   1.084       .  S
C1230      C1486   1.438       .  S
C1230      C1231   1.399       .  A
C1231      C1232   1.402       .  A
C1231      H1235   1.084       .  S
C1232      C1233   1.402       .  A
C1232      C1370   1.482       .  S
C1233      H1236   1.084       .  S
C1237      C2730   1.409       .  A
C1237      C1385   1.474       .  S
C1238      C1239   1.410       .  A
C1238      C1360   1.485       .  S
C1239      C2728   1.412       .  A
C1239      C1350   1.480       .  S
C1240      C2727   1.412   1_455  A
C1240      C1373   1.479       .  S
C1241      C1242   1.408       .  A
C1241      C1330   1.480       .  S
C1242      C2725   1.409   1_455  A
C1242      C1340   1.482       .  S
C1243      C1328   1.442       .  S
C1243      C1244   1.408       .  A
C1243      C1248   1.398       .  A
C1244      C1245   1.408       .  A
C1244      H1249   1.084       .  S
C1245      C1475   1.445       .  S
C1245      C1246   1.400       .  A
C1246      C1247   1.402       .  A
C1246      H1250   1.084       .  S
C1247      C1248   1.400       .  A
C1247      C1333   1.482       .  S
C1248      H1251   1.085       .  S
C1252      C1469   1.444       .  S
C1252      C1253   1.409       .  A
C1252      C1257   1.400       .  A
C1253      C1254   1.408       .  A
C1253      H1258   1.084       .  S
C1254      C1326   1.444       .  S
C1254      C1255   1.399       .  A
C1255      C1256   1.401       .  A
C1255      H1259   1.084       .  S
C1256      C1257   1.401       .  A
C1256      C1343   1.482       .  S
C1257      H1260   1.084       .  S
C1261      C1324   1.445       .  S
C1261      C1262   1.408       .  A
C1261      C1266   1.400       .  A
C1262      C1263   1.408       .  A
C1262      H1267   1.084       .  S
C1263      C1480   1.445       .  S
C1263      C1264   1.400       .  A
C1264      C1265   1.403       .  A
C1264      H1268   1.084       .  S
C1265      C1266   1.403       .  A
C1265      C1363   1.487       .  S
C1266      H1269   1.084       .  S
C1270      C1471   1.442       .  S
C1270      C1271   1.399       .  A
C1270      C1275   1.408       .  A
C1271      C1272   1.401       .  A
C1271      H1276   1.084       .  S
C1272      C1273   1.401       .  A
C1272      C1353   1.482       .  S
C1273      C1274   1.399       .  A
C1273      H1277   1.084       .  S
C1274      C1322   1.443       .  S
C1274      C1275   1.408       .  A
C1275      H1278   1.084       .  S
O1279      C1289   1.281       .  A
O1280     Ni1287   1.919       .  S
O1280      C1290   1.279       .  A
O1281      C1291   1.281       .  A
O1282     Ni1287   1.924       .  S
O1282      C1292   1.280       .  A
O1283      C1292   1.281       .  A
O1284     Ni1288   1.923       .  S
O1284      C1291   1.280       .  A
O1285      C1290   1.281       .  A
O1286     Ni1288   1.922       .  S
O1286      C1289   1.280       .  A
C1289      C1400   1.439       .  S
C1290      C1327   1.438       .  S
C1291      C1323   1.441       .  S
C1292      C1396   1.443       .  S
O1293      C1303   1.280       .  A
O1294      C1304   1.278       .  A
O1295      C1305   1.280       .  A
O1296     Ni1301   1.918       .  S
O1296      C1306   1.279       .  A
O1297      C1306   1.281       .  A
O1298     Ni1302   1.917   1_556  S
O1298      C1305   1.279       .  A
O1299      C1304   1.280       .  A
O1300      C1303   1.279       .  A
C1303      C1451   1.432       .  S
C1304      C1392   1.431       .  S
C1305      C1380   1.433       .  S
C1306      C1464   1.435       .  S
O1307     Ni1315   1.922       .  S
O1307      C1317   1.280       .  A
O1308     Ni1315   1.921       .  S
O1308      C1318   1.281       .  A
O1309     Ni1315   1.923       .  S
O1309      C1319   1.280       .  A
O1310     Ni1315   1.920       .  S
O1310      C1320   1.281       .  A
O1311     Ni1316   1.920       .  S
O1311      C1320   1.279       .  A
O1312     Ni1316   1.918       .  S
O1312      C1319   1.281       .  A
O1313     Ni1316   1.924       .  S
O1313      C1318   1.280       .  A
O1314     Ni1316   1.921       .  S
O1314      C1317   1.281       .  A
Ni1315    Ni1316   2.393       .  S
C1317      C1325   1.440       .  S
C1318      C1393   1.441       .  S
C1319      C1397   1.439       .  S
C1320      C1321   1.439       .  S
C1321      C1322   1.208       .  T
C1323      C1324   1.209       .  T
C1325      C1326   1.209       .  T
C1327      C1328   1.208       .  T
C1329      C1330   1.400       .  A
C1329      C1334   1.396       .  A
C1330      C1331   1.401       .  A
C1331      C1332   1.395       .  A
C1331      H1336   1.083       .  S
C1332      C1333   1.406       .  A
C1332      H1337   1.082       .  S
C1333      C1334   1.407       .  A
C1334      H1338   1.082       .  S
C1339      C1340   1.401       .  A
C1339      C1344   1.396       .  A
C1339      H2833   1.083       .  S
C1340      C1341   1.401       .  A
C1341      C1342   1.395       .  A
C1341      H1346   1.083       .  S
C1342      C1343   1.407       .  A
C1342      H1347   1.083       .  S
C1343      C1344   1.407       .  A
C1344      H1348   1.083       .  S
H1345      C2827   1.083       .  S
C1349      C1350   1.401       .  A
C1349      C1354   1.395       .  A
C1349      H1355   1.083       .  S
C1350      C1351   1.400       .  A
C1351      C1352   1.395       .  A
C1351      H1356   1.083       .  S
C1352      C1353   1.407       .  A
C1352      H1357   1.083       .  S
C1353      C1354   1.406       .  A
C1354      H1358   1.083       .  S
C1359      C1360   1.401       .  A
C1359      C1364   1.397       .  A
C1360      C1361   1.401       .  A
C1361      C1362   1.396       .  A
C1361      H1366   1.083       .  S
C1362      C1363   1.408       .  A
C1362      H1367   1.082       .  S
C1363      C1364   1.408       .  A
C1364      H1368   1.082       .  S
C1369      C1370   1.407       .  A
C1369      C1374   1.394       .  A
C1369      H1375   1.082       .  S
C1370      C1371   1.407       .  A
C1371      C1372   1.394       .  A
C1371      H1376   1.082       .  S
C1372      C1373   1.400       .  A
C1372      H2865   1.083       .  S
C1373      C1374   1.400       .  A
H1377      C2860   1.083       .  S
C1379      C1380   1.205       .  T
C1381      C1382   1.407       .  A
C1381      C1386   1.393       .  A
C1381      H1387   1.082       .  S
C1382      C1383   1.405       .  A
C1383      C1384   1.393       .  A
C1383      H1388   1.082       .  S
C1384      C1385   1.400       .  A
C1384      H2877   1.083       .  S
C1385      C1386   1.399       .  A
H1389      C2872   1.083       .  S
C1391      C1392   1.204       .  T
C1393      C1394   1.210       .  T
C1395      C1396   1.211       .  T
C1397      C1398   1.208       .  T
C1399      C1400   1.208       .  T
C1401      C1402   1.404       .  A
C1401      C1406   1.396       .  A
C1402      C1403   1.407       .  A
C1403      C1404   1.394       .  A
C1403      H1408   1.083       .  S
C1404      C1405   1.401       .  A
C1404      H1409   1.083       .  S
C1405      C1406   1.403       .  A
C1406      H1410   1.083       .  S
C1411      C1412   1.403       .  A
C1411      C1416   1.397       .  A
C1411      H2905   1.083       .  S
C1412      C1413   1.404       .  A
C1413      C1414   1.396       .  A
C1413      H1418   1.083       .  S
C1414      C1415   1.401       .  A
C1414      H1419   1.083       .  S
C1415      C1416   1.402       .  A
C1416      H1420   1.083       .  S
H1417      C2899   1.083       .  S
C1421      C1422   1.409       .  A
C1421      C1426   1.396       .  A
C1421      H1427   1.082       .  S
C1422      C1423   1.409       .  A
C1423      C1424   1.396       .  A
C1423      H1428   1.082       .  S
C1424      C1425   1.404       .  A
C1424      H2917   1.083       .  S
C1425      C1426   1.410       .  A
C1426      H1430   1.083       .  S
H1429      C2912   1.083       .  S
C1431      C1432   1.426       .  A
C1431      C1436   1.404       .  A
C1432      C1433   1.421       .  A
C1433      C1434   1.388       .  A
C1433      H1438   1.058       .  S
C1434      C1435   1.390       .  A
C1434      H1439   1.084       .  S
C1435      C1436   1.395       .  A
C1436      H1440   1.084       .  S
C1441      C1442   1.395       .  A
C1441      C1446   1.391       .  A
C1441      H1447   1.082       .  S
C1442      C1443   1.392       .  A
C1443      C1444   1.394       .  A
C1443      H1448   1.084       .  S
C1444      C1445   1.426       .  A
C1445      C1446   1.418       .  A
C1446      H2938   1.059       .  S
H1450      C2934   1.059       .  S
C1451      C1452   1.204       .  T
C1453      C1454   1.401       .  A
C1453      C1458   1.395       .  A
C1453      H1459   1.083       .  S
C1454      C1455   1.398       .  A
C1455      C1456   1.390       .  A
C1455      H1460   1.083       .  S
C1456      C1457   1.408       .  A
C1456      H2949   1.083       .  S
C1457      C1458   1.402       .  A
H1461      C2944   1.083       .  S
C1463      C1464   1.206       .  T
C1465      C1466   1.209       .  T
C1467      C1468   1.208       .  T
C1469      C1470   1.209       .  T
C1471      C1472   1.208       .  T
C1473      C1474   1.208       .  T
C1475      C1476   1.209       .  T
C1477      C1478   1.210       .  T
C1479      C1480   1.209       .  T
C1481      C1482   1.204       .  T
C1483      C1484   1.205       .  T
C1485      C1486   1.205       .  T
C1487      C1488   1.204       .  T
O1489     Ni1497   1.921       .  S
O1489      C1499   1.280       .  A
O1490      C1500   1.282       .  A
O1491     Ni1497   1.913       .  S
O1491      C1501   1.277       .  A
O1492      C1502   1.279       .  A
O1493     Ni1498   1.920       .  S
O1493      C1502   1.280       .  A
O1494      C1501   1.281       .  A
O1495     Ni1498   1.912       .  S
O1495      C1500   1.277       .  A
O1496      C1499   1.279       .  A
C1499      C1856   1.433       .  S
C1500      C1860   1.433       .  S
C1501      C1853   1.432       .  S
C1502      C1857   1.433       .  S
O1503     Ni1511   1.923   1_554  S
O1503      C1513   1.282       .  A
O1504     Ni1883   1.926       .  S
O1504      C1514   1.281       .  A
O1505     Ni1883   1.917       .  S
O1505      C1515   1.280       .  A
O1506     Ni1511   1.920   1_554  S
O1506      C1516   1.279       .  A
O1507     Ni1512   1.925   1_554  S
O1507      C1516   1.283       .  A
O1508     Ni1884   1.926       .  S
O1508      C1515   1.281       .  A
O1509     Ni1884   1.917       .  S
O1509      C1514   1.280       .  A
O1510     Ni1512   1.919   1_554  S
O1510      C1513   1.278       .  A
Ni1511     O1876   1.926       .  S
Ni1511     O1877   1.917       .  S
Ni1511    Ni1512   2.392       .  S
Ni1512     O1880   1.926       .  S
Ni1512     O1881   1.917       .  S
C1513      C1846   1.439       .  S
C1514      C1851   1.441       .  S
C1515      C1848   1.440       .  S
C1516      C1850   1.442       .  S
O1517      C1527   1.281       .  A
O1518     Ni1525   1.922       .  S
O1518      C1528   1.280       .  A
O1519      C1529   1.281       .  A
O1520     Ni1897   1.922   1_554  S
O1520      C1530   1.280       .  A
O1521      C1530   1.281       .  A
O1522     Ni1526   1.920       .  S
O1522      C1529   1.279       .  A
O1523      C1528   1.281       .  A
O1524     Ni1898   1.923       .  S
O1524      C1527   1.280       .  A
Ni1525     O1892   1.922       .  S
Ni1526     O1896   1.923       .  S
C1527      C1837   1.441       .  S
C1528      C1842   1.440       .  S
C1529      C1844   1.438       .  S
C1530      C1840   1.439       .  S
C1531      C1835   1.439       .  S
C1531      C1532   1.407       .  A
C1531      C1536   1.398       .  A
C1532      C1533   1.407       .  A
C1532      H1537   1.084       .  S
C1533      C1854   1.435       .  S
C1533      C1534   1.396       .  A
C1534      C1535   1.391       .  A
C1534      H1538   1.085       .  S
C1535      C1536   1.396       .  A
C1535      C1826   1.458       .  S
C1536      H1539   1.085       .  S
C1540      C1824   1.437       .  S
C1540      C1541   1.404       .  A
C1540      C1545   1.400       .  A
C1541      C1542   1.403       .  A
C1541      H1546   1.084       .  S
C1542      C1859   1.436       .  S
C1542      C1543   1.394       .  A
C1543      C1544   1.400       .  A
C1543      H1547   1.083       .  S
C1544      C1545   1.403       .  A
C1544      C1814   1.484       .  S
C1545      H1548   1.084       .  S
C1549      C2294   1.435   1_545  A
C1549      C1829   1.476       .  S
C1550      C2293   1.435       .  A
C1550      C1551   1.461       .  A
C1550      C1804   1.583       .  S
C1551      C1797   1.460       .  S
C1552      C2297   1.435       .  A
C1552      C1817   1.580       .  S
C1553      C2296   1.435   1_545  A
C1553      C1554   1.403       .  A
C1553      C1774   1.475       .  S
C1554      C1784   1.497       .  S
C1555      C1771   1.443       .  S
C1555      C1556   1.411       .  A
C1555      C1560   1.403       .  A
C1556      C1557   1.408       .  A
C1556      H1561   1.084       .  S
C1557      C1849   1.444       .  S
C1557      C1558   1.395       .  A
C1558      C1559   1.401       .  A
C1558      H1562   1.084       .  S
C1559      C1560   1.400       .  A
C1559      C1807   1.482       .  S
C1560      H1563   1.085       .  S
C1564      C1839   1.443       .  S
C1564      C1565   1.400       .  A
C1564      C1569   1.409       .  A
C1565      C1566   1.397       .  A
C1565      H1570   1.085       .  S
C1566      C1567   1.397       .  A
C1566      C1787   1.469       .  S
C1567      C1568   1.400       .  A
C1567      H1571   1.085       .  S
C1568      C1770   1.443       .  S
C1568      C1569   1.409       .  A
C1569      H1572   1.084       .  S
C1573      C1767   1.447       .  S
C1573      C1574   1.401       .  A
C1573      C1578   1.412       .  A
C1574      C1575   1.398       .  A
C1574      H1579   1.085       .  S
C1575      C1576   1.392       .  A
C1575      C1777   1.464       .  S
C1576      C1577   1.397       .  A
C1576      H1580   1.085       .  S
C1577      C1845   1.442       .  S
C1577      C1578   1.411       .  A
C1578      H1581   1.084       .  S
C1582      C1838   1.445       .  S
C1582      C1583   1.399       .  A
C1582      C1587   1.409       .  A
C1583      C1584   1.402       .  A
C1583      H1588   1.084       .  S
C1584      C1585   1.402       .  A
C1584      C1794   1.484       .  S
C1585      C1586   1.400       .  A
C1585      H1589   1.084       .  S
C1586      C1766   1.445       .  S
C1586      C1587   1.409       .  A
C1587      H1590   1.084       .  S
C1591      C1763   1.435       .  S
C1591      C1592   1.403       .  A
C1591      C1596   1.397       .  A
C1592      C1593   1.404       .  A
C1592      H1597   1.084       .  S
C1593      C1855   1.438       .  S
C1593      C1594   1.399       .  A
C1594      C1595   1.401       .  A
C1594      H1598   1.084       .  S
C1595      C1596   1.399       .  A
C1595      C1754   1.478       .  S
C1596      H1599   1.085       .  S
C1600      C1751   1.437       .  S
C1600      C1601   1.403       .  A
C1600      C1605   1.399       .  A
C1601      C1602   1.403       .  A
C1601      H1606   1.084       .  S
C1602      C1858   1.438       .  S
C1602      C1603   1.399       .  A
C1603      C1604   1.402       .  A
C1603      H1607   1.084       .  S
C1604      C1605   1.402       .  A
C1604      C1742   1.482       .  S
C1605      H1608   1.084       .  S
C1609      C2354   1.411   1_545  A
C1609      C1757   1.474       .  S
C1610      C2353   1.411       .  A
C1610      C1611   1.410       .  A
C1610      C1732   1.485       .  S
C1611      C1722   1.480       .  S
C1612      C2357   1.411       .  A
C1612      C1745   1.479       .  S
C1613      C2356   1.411   1_545  A
C1613      C1614   1.408       .  A
C1613      C1702   1.480       .  S
C1614      C1712   1.482       .  S
C1615      C1700   1.442       .  S
C1615      C1616   1.408       .  A
C1615      C1620   1.398       .  A
C1616      C1617   1.408       .  A
C1616      H1621   1.084       .  S
C1617      C1847   1.445       .  S
C1617      C1618   1.400       .  A
C1618      C1619   1.402       .  A
C1618      H1622   1.084       .  S
C1619      C1620   1.400       .  A
C1619      C1705   1.482       .  S
C1620      H1623   1.085       .  S
C1624      C1841   1.444       .  S
C1624      C1625   1.409       .  A
C1624      C1629   1.400       .  A
C1625      C1626   1.408       .  A
C1625      H1630   1.084       .  S
C1626      C1698   1.444       .  S
C1626      C1627   1.399       .  A
C1627      C1628   1.401       .  A
C1627      H1631   1.084       .  S
C1628      C1629   1.401       .  A
C1628      C1715   1.482       .  S
C1629      H1632   1.084       .  S
C1633      C1696   1.445       .  S
C1633      C1634   1.408       .  A
C1633      C1638   1.400       .  A
C1634      C1635   1.408       .  A
C1634      H1639   1.084       .  S
C1635      C1852   1.445       .  S
C1635      C1636   1.400       .  A
C1636      C1637   1.403       .  A
C1636      H1640   1.084       .  S
C1637      C1638   1.403       .  A
C1637      C1735   1.487       .  S
C1638      H1641   1.084       .  S
C1642      C1843   1.442       .  S
C1642      C1643   1.399       .  A
C1642      C1647   1.408       .  A
C1643      C1644   1.401       .  A
C1643      H1648   1.084       .  S
C1644      C1645   1.401       .  A
C1644      C1725   1.482       .  S
C1645      C1646   1.399       .  A
C1645      H1649   1.084       .  S
C1646      C1694   1.443       .  S
C1646      C1647   1.408       .  A
C1647      H1650   1.084       .  S
O1651     Ni2403   1.918       .  S
O1651      C1661   1.281       .  A
O1652     Ni1659   1.919       .  S
O1652      C1662   1.279       .  A
O1653     Ni2403   1.922       .  S
O1653      C1663   1.281       .  A
O1654     Ni1659   1.924       .  S
O1654      C1664   1.280       .  A
O1655     Ni2404   1.922   1_545  S
O1655      C1664   1.281       .  A
O1656     Ni1660   1.923       .  S
O1656      C1663   1.280       .  A
O1657     Ni2404   1.920   1_545  S
O1657      C1662   1.281       .  A
O1658     Ni1660   1.922       .  S
O1658      C1661   1.280       .  A
Ni1659     O2395   1.918   1_545  S
Ni1659     O2397   1.922   1_545  S
Ni1659    Ni2404   2.393   1_545  S
Ni1660     O2399   1.922       .  S
Ni1660     O2401   1.920       .  S
Ni1660    Ni2403   2.393       .  S
C1661      C1772   1.439       .  S
C1662      C1699   1.438       .  S
C1663      C1695   1.441       .  S
C1664      C1768   1.443       .  S
O1665     Ni2417   1.915       .  S
O1665      C1675   1.280       .  A
O1666     Ni2045   1.915       .  S
O1666      C1676   1.278       .  A
O1667     Ni2789   1.915       .  S
O1667      C1677   1.280       .  A
O1668     Ni1673   1.918       .  S
O1668      C1678   1.279       .  A
O1669     Ni2790   1.917   1_545  S
O1669      C1678   1.281       .  A
O1670     Ni1674   1.917       .  S
O1670      C1677   1.279       .  A
O1671     Ni2418   1.915   1_545  S
O1671      C1676   1.280       .  A
O1672     Ni2046   1.917       .  S
O1672      C1675   1.279       .  A
Ni1673     O2409   1.915   1_545  S
Ni1673     O2038   1.915   1_554  S
Ni1673     O2783   1.915   1_544  S
Ni1673    Ni2790   2.395   1_545  S
Ni1674     O2785   1.917       .  S
Ni1674     O2415   1.915       .  S
Ni1674     O2044   1.917       .  S
Ni1674    Ni2789   2.395       .  S
C1675      C1823   1.433       .  S
C1676      C1764   1.431       .  S
C1677      C1752   1.433       .  S
C1678      C1836   1.435       .  S
O1679     Ni1687   1.922       .  S
O1679      C1689   1.280       .  A
O1680     Ni1687   1.921       .  S
O1680      C1690   1.281       .  A
O1681     Ni1687   1.923       .  S
O1681      C1691   1.280       .  A
O1682     Ni1687   1.920       .  S
O1682      C1692   1.281       .  A
O1683     Ni1688   1.920       .  S
O1683      C1692   1.279       .  A
O1684     Ni1688   1.918       .  S
O1684      C1691   1.281       .  A
O1685     Ni1688   1.924       .  S
O1685      C1690   1.280       .  A
O1686     Ni1688   1.921       .  S
O1686      C1689   1.281       .  A
Ni1687    Ni1688   2.393       .  S
C1689      C1697   1.440       .  S
C1690      C1765   1.441       .  S
C1691      C1769   1.439       .  S
C1692      C1693   1.439       .  S
C1693      C1694   1.208       .  T
C1695      C1696   1.209       .  T
C1697      C1698   1.209       .  T
C1699      C1700   1.208       .  T
C1701      C1702   1.400       .  A
C1701      C1706   1.396       .  A
C1701      H2451   1.083       .  S
C1702      C1703   1.401       .  A
C1703      C1704   1.395       .  A
C1703      H1708   1.083       .  S
C1704      C1705   1.406       .  A
C1704      H1709   1.082       .  S
C1705      C1706   1.407       .  A
C1706      H1710   1.082       .  S
H1707      C2445   1.083       .  S
C1711      C1712   1.401       .  A
C1711      C1716   1.396       .  A
C1712      C1713   1.401       .  A
C1713      C1714   1.395       .  A
C1713      H1718   1.083       .  S
C1714      C1715   1.407       .  A
C1714      H1719   1.083       .  S
C1715      C1716   1.407       .  A
C1716      H1720   1.083       .  S
C1721      C1722   1.401       .  A
C1721      C1726   1.395       .  A
C1721      H1727   1.083       .  S
C1722      C1723   1.400       .  A
C1723      C1724   1.395       .  A
C1723      H1728   1.083       .  S
C1724      C1725   1.407       .  A
C1724      H1729   1.083       .  S
C1725      C1726   1.406       .  A
C1726      H1730   1.083       .  S
C1731      C1732   1.401       .  A
C1731      C1736   1.397       .  A
C1731      H2481   1.083       .  S
C1732      C1733   1.401       .  A
C1733      C1734   1.396       .  A
C1733      H1738   1.083       .  S
C1734      C1735   1.408       .  A
C1734      H1739   1.082       .  S
C1735      C1736   1.408       .  A
C1736      H1740   1.082       .  S
H1737      C2475   1.083       .  S
C1741      C1742   1.407       .  A
C1741      C1746   1.394       .  A
C1741      H1747   1.082       .  S
C1742      C1743   1.407       .  A
C1743      C1744   1.394       .  A
C1743      H1748   1.082       .  S
C1744      C1745   1.400       .  A
C1745      C1746   1.400       .  A
C1746      H2494   1.083       .  S
H1750      C2490   1.083       .  S
C1751      C1752   1.205       .  T
C1753      C1754   1.407       .  A
C1753      C1758   1.393       .  A
C1753      H1759   1.082       .  S
C1754      C1755   1.405       .  A
C1755      C1756   1.393       .  A
C1755      H1760   1.082       .  S
C1756      C1757   1.400       .  A
C1757      C1758   1.399       .  A
C1758      H2506   1.083       .  S
H1762      C2502   1.083       .  S
C1763      C1764   1.203       .  T
C1765      C1766   1.210       .  T
C1767      C1768   1.211       .  T
C1769      C1770   1.208       .  T
C1771      C1772   1.208       .  T
C1773      C1774   1.404       .  A
C1773      C1778   1.396       .  A
C1773      H2523   1.083       .  S
C1774      C1775   1.407       .  A
C1775      C1776   1.394       .  A
C1775      H1780   1.083       .  S
C1776      C1777   1.401       .  A
C1776      H1781   1.083       .  S
C1777      C1778   1.403       .  A
C1778      H1782   1.083       .  S
H1779      C2517   1.083       .  S
C1783      C1784   1.403       .  A
C1783      C1788   1.397       .  A
C1784      C1785   1.404       .  A
C1785      C1786   1.396       .  A
C1785      H1790   1.083       .  S
C1786      C1787   1.402       .  A
C1786      H1791   1.083       .  S
C1787      C1788   1.402       .  A
C1788      H1792   1.083       .  S
C1793      C1794   1.409       .  A
C1793      C1798   1.396       .  A
C1793      H1799   1.082       .  S
C1794      C1795   1.409       .  A
C1795      C1796   1.396       .  A
C1795      H1800   1.082       .  S
C1796      C1797   1.404       .  A
C1797      C1798   1.410       .  A
C1798      H1802   1.083       .  S
C1803      C1804   1.426       .  A
C1803      C1808   1.403       .  A
C1803      H2553   1.064       .  S
C1804      C1805   1.421       .  A
C1805      C1806   1.389       .  A
C1805      H1810   1.058       .  S
C1806      C1807   1.391       .  A
C1806      H1811   1.084       .  S
C1807      C1808   1.395       .  A
C1808      H1812   1.084       .  S
H1809      C2547   1.065   1_545  S
C1813      C1814   1.395       .  A
C1813      C1818   1.391       .  A
C1813      H1819   1.082       .  S
C1814      C1815   1.392       .  A
C1815      C1816   1.394       .  A
C1815      H1820   1.084       .  S
C1816      C1817   1.426       .  A
C1816      H2565   1.055       .  S
C1817      C1818   1.418       .  A
H1821      C2560   1.056   1_545  S
C1823      C1824   1.205       .  T
C1825      C1826   1.401       .  A
C1825      C1830   1.395       .  A
C1825      H1831   1.083       .  S
C1826      C1827   1.398       .  A
C1827      C1828   1.390       .  A
C1827      H1832   1.083       .  S
C1828      C1829   1.408       .  A
C1829      C1830   1.402       .  A
C1830      H2578   1.083       .  S
H1834      C2574   1.083       .  S
C1835      C1836   1.206       .  T
C1837      C1838   1.209       .  T
C1839      C1840   1.208       .  T
C1841      C1842   1.209       .  T
C1843      C1844   1.208       .  T
C1845      C1846   1.208       .  T
C1847      C1848   1.209       .  T
C1849      C1850   1.210       .  T
C1851      C1852   1.209       .  T
C1853      C1854   1.204       .  T
C1855      C1856   1.205       .  T
C1857      C1858   1.205       .  T
C1859      C1860   1.204       .  T
O1861     Ni1869   1.921       .  S
O1861      C1871   1.280       .  A
O1862      C1872   1.282       .  A
O1863     Ni1869   1.913       .  S
O1863      C1873   1.277       .  A
O1864      C1874   1.279       .  A
O1865     Ni1870   1.920       .  S
O1865      C1874   1.280       .  A
O1866      C1873   1.281       .  A
O1867     Ni1870   1.912       .  S
O1867      C1872   1.277       .  A
O1868      C1871   1.279       .  A
C1871      C2228   1.433       .  S
C1872      C2232   1.433       .  S
C1873      C2225   1.432       .  S
C1874      C2229   1.433       .  S
O1875     Ni1883   1.923       .  S
O1875      C1885   1.282       .  A
O1876      C1886   1.281       .  A
O1877      C1887   1.280       .  A
O1878     Ni1883   1.920       .  S
O1878      C1888   1.279       .  A
O1879     Ni1884   1.925       .  S
O1879      C1888   1.283       .  A
O1880      C1887   1.281       .  A
O1881      C1886   1.280       .  A
O1882     Ni1884   1.919       .  S
O1882      C1885   1.278       .  A
Ni1883    Ni1884   2.392       .  S
C1885      C2218   1.439       .  S
C1886      C2223   1.441       .  S
C1887      C2220   1.440       .  S
C1888      C2222   1.442       .  S
O1889      C1899   1.281       .  A
O1890     Ni1897   1.922       .  S
O1890      C1900   1.280       .  A
O1891      C1901   1.281       .  A
O1892      C1902   1.280       .  A
O1893      C1902   1.281       .  A
O1894     Ni1898   1.920   1_556  S
O1894      C1901   1.279       .  A
O1895      C1900   1.281       .  A
O1896      C1899   1.280       .  A
C1899      C2209   1.441       .  S
C1900      C2214   1.440       .  S
C1901      C2216   1.438       .  S
C1902      C2212   1.439       .  S
C1903      C2207   1.439       .  S
C1903      C1904   1.407       .  A
C1903      C1908   1.398       .  A
C1904      C1905   1.407       .  A
C1904      H1909   1.084       .  S
C1905      C2226   1.435       .  S
C1905      C1906   1.396       .  A
C1906      C1907   1.391       .  A
C1906      H1910   1.085       .  S
C1907      C1908   1.396       .  A
C1907      C2198   1.458       .  S
C1908      H1911   1.085       .  S
C1912      C2196   1.437       .  S
C1912      C1913   1.404       .  A
C1912      C1917   1.400       .  A
C1913      C1914   1.403       .  A
C1913      H1918   1.084       .  S
C1914      C2231   1.436       .  S
C1914      C1915   1.394       .  A
C1915      C1916   1.400       .  A
C1915      H1919   1.083       .  S
C1916      C1917   1.403       .  A
C1916      C2186   1.484       .  S
C1917      H1920   1.084       .  S
C1921      C2666   1.435   1_545  A
C1921      C2201   1.476       .  S
C1922      C2665   1.435       .  A
C1922      C1923   1.461       .  A
C1922      C2176   1.583       .  S
C1923      C2169   1.460       .  S
C1924      C2669   1.435       .  A
C1924      C2189   1.580       .  S
C1925      C2668   1.435   1_545  A
C1925      C1926   1.403       .  A
C1925      C2146   1.475       .  S
C1926      C2156   1.497       .  S
C1927      C2143   1.443       .  S
C1927      C1928   1.411       .  A
C1927      C1932   1.403       .  A
C1928      C1929   1.408       .  A
C1928      H1933   1.084       .  S
C1929      C2221   1.444       .  S
C1929      C1930   1.395       .  A
C1930      C1931   1.401       .  A
C1930      H1934   1.084       .  S
C1931      C1932   1.400       .  A
C1931      C2179   1.482       .  S
C1932      H1935   1.085       .  S
C1936      C2211   1.443       .  S
C1936      C1937   1.400       .  A
C1936      C1941   1.409       .  A
C1937      C1938   1.397       .  A
C1937      H1942   1.085       .  S
C1938      C1939   1.397       .  A
C1938      C2159   1.469       .  S
C1939      C1940   1.400       .  A
C1939      H1943   1.085       .  S
C1940      C2142   1.443       .  S
C1940      C1941   1.409       .  A
C1941      H1944   1.084       .  S
C1945      C2139   1.447       .  S
C1945      C1946   1.401       .  A
C1945      C1950   1.412       .  A
C1946      C1947   1.398       .  A
C1946      H1951   1.085       .  S
C1947      C1948   1.392       .  A
C1947      C2149   1.464       .  S
C1948      C1949   1.397       .  A
C1948      H1952   1.085       .  S
C1949      C2217   1.442       .  S
C1949      C1950   1.411       .  A
C1950      H1953   1.084       .  S
C1954      C2210   1.445       .  S
C1954      C1955   1.399       .  A
C1954      C1959   1.409       .  A
C1955      C1956   1.402       .  A
C1955      H1960   1.084       .  S
C1956      C1957   1.402       .  A
C1956      C2166   1.484       .  S
C1957      C1958   1.400       .  A
C1957      H1961   1.084       .  S
C1958      C2138   1.445       .  S
C1958      C1959   1.409       .  A
C1959      H1962   1.084       .  S
C1963      C2135   1.435       .  S
C1963      C1964   1.403       .  A
C1963      C1968   1.397       .  A
C1964      C1965   1.404       .  A
C1964      H1969   1.084       .  S
C1965      C2227   1.438       .  S
C1965      C1966   1.399       .  A
C1966      C1967   1.401       .  A
C1966      H1970   1.084       .  S
C1967      C1968   1.399       .  A
C1967      C2126   1.478       .  S
C1968      H1971   1.085       .  S
C1972      C2123   1.437       .  S
C1972      C1973   1.403       .  A
C1972      C1977   1.399       .  A
C1973      C1974   1.403       .  A
C1973      H1978   1.084       .  S
C1974      C2230   1.438       .  S
C1974      C1975   1.399       .  A
C1975      C1976   1.402       .  A
C1975      H1979   1.084       .  S
C1976      C1977   1.402       .  A
C1976      C2114   1.482       .  S
C1977      H1980   1.084       .  S
C1981      C2726   1.411   1_545  A
C1981      C2129   1.474       .  S
C1982      C2725   1.411       .  A
C1982      C1983   1.410       .  A
C1982      C2104   1.485       .  S
C1983      C2094   1.480       .  S
C1984      C2729   1.411       .  A
C1984      C2117   1.479       .  S
C1985      C2728   1.411   1_545  A
C1985      C1986   1.408       .  A
C1985      C2074   1.480       .  S
C1986      C2084   1.482       .  S
C1987      C2072   1.442       .  S
C1987      C1988   1.408       .  A
C1987      C1992   1.398       .  A
C1988      C1989   1.408       .  A
C1988      H1993   1.084       .  S
C1989      C2219   1.445       .  S
C1989      C1990   1.400       .  A
C1990      C1991   1.402       .  A
C1990      H1994   1.084       .  S
C1991      C1992   1.400       .  A
C1991      C2077   1.482       .  S
C1992      H1995   1.085       .  S
C1996      C2213   1.444       .  S
C1996      C1997   1.409       .  A
C1996      C2001   1.400       .  A
C1997      C1998   1.408       .  A
C1997      H2002   1.084       .  S
C1998      C2070   1.444       .  S
C1998      C1999   1.399       .  A
C1999      C2000   1.401       .  A
C1999      H2003   1.084       .  S
C2000      C2001   1.401       .  A
C2000      C2087   1.482       .  S
C2001      H2004   1.084       .  S
C2005      C2068   1.445       .  S
C2005      C2006   1.408       .  A
C2005      C2010   1.400       .  A
C2006      C2007   1.408       .  A
C2006      H2011   1.084       .  S
C2007      C2224   1.445       .  S
C2007      C2008   1.400       .  A
C2008      C2009   1.403       .  A
C2008      H2012   1.084       .  S
C2009      C2010   1.403       .  A
C2009      C2107   1.487       .  S
C2010      H2013   1.084       .  S
C2014      C2215   1.442       .  S
C2014      C2015   1.399       .  A
C2014      C2019   1.408       .  A
C2015      C2016   1.401       .  A
C2015      H2020   1.084       .  S
C2016      C2017   1.401       .  A
C2016      C2097   1.482       .  S
C2017      C2018   1.399       .  A
C2017      H2021   1.084       .  S
C2018      C2066   1.443       .  S
C2018      C2019   1.408       .  A
C2019      H2022   1.084       .  S
O2023     Ni2775   1.918       .  S
O2023      C2033   1.281       .  A
O2024     Ni2031   1.919       .  S
O2024      C2034   1.279       .  A
O2025     Ni2775   1.922       .  S
O2025      C2035   1.281       .  A
O2026     Ni2031   1.924       .  S
O2026      C2036   1.280       .  A
O2027     Ni2776   1.922   1_545  S
O2027      C2036   1.281       .  A
O2028     Ni2032   1.923       .  S
O2028      C2035   1.280       .  A
O2029     Ni2776   1.920   1_545  S
O2029      C2034   1.281       .  A
O2030     Ni2032   1.922       .  S
O2030      C2033   1.280       .  A
Ni2031     O2767   1.918   1_545  S
Ni2031     O2769   1.922   1_545  S
Ni2031    Ni2776   2.393   1_545  S
Ni2032     O2771   1.922       .  S
Ni2032     O2773   1.920       .  S
Ni2032    Ni2775   2.393       .  S
C2033      C2144   1.439       .  S
C2034      C2071   1.438       .  S
C2035      C2067   1.441       .  S
C2036      C2140   1.443       .  S
O2037     Ni2789   1.915       .  S
O2037      C2047   1.280       .  A
O2038      C2048   1.278       .  A
O2039     Ni2417   1.915   1_556  S
O2039      C2049   1.280       .  A
O2040     Ni2045   1.918       .  S
O2040      C2050   1.279       .  A
O2041     Ni2418   1.917   1_545  S
O2041      C2050   1.281       .  A
O2042     Ni2046   1.917   1_556  S
O2042      C2049   1.279       .  A
O2043     Ni2790   1.915   1_546  S
O2043      C2048   1.280       .  A
O2044      C2047   1.279       .  A
Ni2045     O2781   1.915   1_545  S
Ni2045     O2411   1.915   1_545  S
Ni2045    Ni2418   2.395   1_545  S
Ni2046     O2413   1.917       .  S
Ni2046     O2787   1.915   1_554  S
Ni2046    Ni2417   2.395       .  S
C2047      C2195   1.433       .  S
C2048      C2136   1.431       .  S
C2049      C2124   1.433       .  S
C2050      C2208   1.435       .  S
O2051     Ni2059   1.922       .  S
O2051      C2061   1.280       .  A
O2052     Ni2059   1.921       .  S
O2052      C2062   1.281       .  A
O2053     Ni2059   1.923       .  S
O2053      C2063   1.280       .  A
O2054     Ni2059   1.920       .  S
O2054      C2064   1.281       .  A
O2055     Ni2060   1.920       .  S
O2055      C2064   1.279       .  A
O2056     Ni2060   1.918       .  S
O2056      C2063   1.281       .  A
O2057     Ni2060   1.924       .  S
O2057      C2062   1.280       .  A
O2058     Ni2060   1.921       .  S
O2058      C2061   1.281       .  A
Ni2059    Ni2060   2.393       .  S
C2061      C2069   1.440       .  S
C2062      C2137   1.441       .  S
C2063      C2141   1.439       .  S
C2064      C2065   1.439       .  S
C2065      C2066   1.208       .  T
C2067      C2068   1.209       .  T
C2069      C2070   1.209       .  T
C2071      C2072   1.208       .  T
C2073      C2074   1.400       .  A
C2073      C2078   1.396       .  A
C2073      H2823   1.083       .  S
C2074      C2075   1.401       .  A
C2075      C2076   1.395       .  A
C2075      H2080   1.083       .  S
C2076      C2077   1.406       .  A
C2076      H2081   1.082       .  S
C2077      C2078   1.407       .  A
C2078      H2082   1.082       .  S
H2079      C2817   1.083       .  S
C2083      C2084   1.401       .  A
C2083      C2088   1.396       .  A
C2084      C2085   1.401       .  A
C2085      C2086   1.395       .  A
C2085      H2090   1.083       .  S
C2086      C2087   1.407       .  A
C2086      H2091   1.083       .  S
C2087      C2088   1.407       .  A
C2088      H2092   1.083       .  S
C2093      C2094   1.401       .  A
C2093      C2098   1.395       .  A
C2093      H2099   1.083       .  S
C2094      C2095   1.400       .  A
C2095      C2096   1.395       .  A
C2095      H2100   1.083       .  S
C2096      C2097   1.407       .  A
C2096      H2101   1.083       .  S
C2097      C2098   1.406       .  A
C2098      H2102   1.083       .  S
C2103      C2104   1.401       .  A
C2103      C2108   1.397       .  A
C2103      H2853   1.083       .  S
C2104      C2105   1.401       .  A
C2105      C2106   1.396       .  A
C2105      H2110   1.083       .  S
C2106      C2107   1.408       .  A
C2106      H2111   1.082       .  S
C2107      C2108   1.408       .  A
C2108      H2112   1.082       .  S
H2109      C2847   1.083       .  S
C2113      C2114   1.407       .  A
C2113      C2118   1.394       .  A
C2113      H2119   1.082       .  S
C2114      C2115   1.407       .  A
C2115      C2116   1.394       .  A
C2115      H2120   1.082       .  S
C2116      C2117   1.400       .  A
C2117      C2118   1.400       .  A
C2118      H2866   1.083       .  S
H2122      C2862   1.083       .  S
C2123      C2124   1.205       .  T
C2125      C2126   1.407       .  A
C2125      C2130   1.393       .  A
C2125      H2131   1.082       .  S
C2126      C2127   1.405       .  A
C2127      C2128   1.393       .  A
C2127      H2132   1.082       .  S
C2128      C2129   1.400       .  A
C2129      C2130   1.399       .  A
C2130      H2878   1.083       .  S
H2134      C2874   1.083       .  S
C2135      C2136   1.203       .  T
C2137      C2138   1.210       .  T
C2139      C2140   1.211       .  T
C2141      C2142   1.208       .  T
C2143      C2144   1.208       .  T
C2145      C2146   1.404       .  A
C2145      C2150   1.396       .  A
C2145      H2895   1.083       .  S
C2146      C2147   1.407       .  A
C2147      C2148   1.394       .  A
C2147      H2152   1.083       .  S
C2148      C2149   1.401       .  A
C2148      H2153   1.083       .  S
C2149      C2150   1.403       .  A
C2150      H2154   1.083       .  S
H2151      C2889   1.083       .  S
C2155      C2156   1.403       .  A
C2155      C2160   1.397       .  A
C2156      C2157   1.404       .  A
C2157      C2158   1.396       .  A
C2157      H2162   1.083       .  S
C2158      C2159   1.402       .  A
C2158      H2163   1.083       .  S
C2159      C2160   1.402       .  A
C2160      H2164   1.083       .  S
C2165      C2166   1.409       .  A
C2165      C2170   1.396       .  A
C2165      H2171   1.082       .  S
C2166      C2167   1.409       .  A
C2167      C2168   1.396       .  A
C2167      H2172   1.082       .  S
C2168      C2169   1.404       .  A
C2169      C2170   1.410       .  A
C2170      H2174   1.083       .  S
C2175      C2176   1.426       .  A
C2175      C2180   1.403       .  A
C2175      H2925   1.064       .  S
C2176      C2177   1.421       .  A
C2177      C2178   1.389       .  A
C2177      H2182   1.058       .  S
C2178      C2179   1.391       .  A
C2178      H2183   1.084       .  S
C2179      C2180   1.395       .  A
C2180      H2184   1.084       .  S
H2181      C2919   1.065   1_545  S
C2185      C2186   1.395       .  A
C2185      C2190   1.391       .  A
C2185      H2191   1.082       .  S
C2186      C2187   1.392       .  A
C2187      C2188   1.394       .  A
C2187      H2192   1.084       .  S
C2188      C2189   1.426       .  A
C2188      H2937   1.055       .  S
C2189      C2190   1.418       .  A
H2193      C2932   1.056   1_545  S
C2195      C2196   1.205       .  T
C2197      C2198   1.401       .  A
C2197      C2202   1.395       .  A
C2197      H2203   1.083       .  S
C2198      C2199   1.398       .  A
C2199      C2200   1.390       .  A
C2199      H2204   1.083       .  S
C2200      C2201   1.408       .  A
C2201      C2202   1.402       .  A
C2202      H2950   1.083       .  S
H2206      C2946   1.083       .  S
C2207      C2208   1.206       .  T
C2209      C2210   1.209       .  T
C2211      C2212   1.208       .  T
C2213      C2214   1.209       .  T
C2215      C2216   1.208       .  T
C2217      C2218   1.208       .  T
C2219      C2220   1.209       .  T
C2221      C2222   1.210       .  T
C2223      C2224   1.209       .  T
C2225      C2226   1.204       .  T
C2227      C2228   1.205       .  T
C2229      C2230   1.205       .  T
C2231      C2232   1.204       .  T
O2233     Ni2241   1.921       .  S
O2233      C2243   1.280       .  A
O2234      C2244   1.282       .  A
O2235     Ni2241   1.913       .  S
O2235      C2245   1.277       .  A
O2236      C2246   1.279       .  A
O2237     Ni2242   1.920       .  S
O2237      C2246   1.280       .  A
O2238      C2245   1.281       .  A
O2239     Ni2242   1.912       .  S
O2239      C2244   1.277       .  A
O2240      C2243   1.279       .  A
C2243      C2600   1.433       .  S
C2244      C2604   1.433       .  S
C2245      C2597   1.432       .  S
C2246      C2601   1.433       .  S
O2247     Ni2255   1.923   1_554  S
O2247      C2257   1.282       .  A
O2248     Ni2627   1.926       .  S
O2248      C2258   1.281       .  A
O2249     Ni2627   1.917       .  S
O2249      C2259   1.280       .  A
O2250     Ni2255   1.920   1_554  S
O2250      C2260   1.279       .  A
O2251     Ni2256   1.925   1_554  S
O2251      C2260   1.283       .  A
O2252     Ni2628   1.926       .  S
O2252      C2259   1.281       .  A
O2253     Ni2628   1.917       .  S
O2253      C2258   1.280       .  A
O2254     Ni2256   1.919   1_554  S
O2254      C2257   1.278       .  A
Ni2255     O2620   1.926       .  S
Ni2255     O2621   1.917       .  S
Ni2255    Ni2256   2.392       .  S
Ni2256     O2624   1.926       .  S
Ni2256     O2625   1.917       .  S
C2257      C2590   1.439       .  S
C2258      C2595   1.441       .  S
C2259      C2592   1.440       .  S
C2260      C2594   1.442       .  S
O2261      C2271   1.281       .  A
O2262     Ni2269   1.922       .  S
O2262      C2272   1.280       .  A
O2263      C2273   1.281       .  A
O2264     Ni2641   1.922   1_554  S
O2264      C2274   1.280       .  A
O2265      C2274   1.281       .  A
O2266     Ni2270   1.920       .  S
O2266      C2273   1.279       .  A
O2267      C2272   1.281       .  A
O2268     Ni2642   1.923       .  S
O2268      C2271   1.280       .  A
Ni2269     O2636   1.922       .  S
Ni2270     O2640   1.923       .  S
C2271      C2581   1.441       .  S
C2272      C2586   1.440       .  S
C2273      C2588   1.438       .  S
C2274      C2584   1.439       .  S
C2275      C2579   1.439       .  S
C2275      C2276   1.407       .  A
C2275      C2280   1.398       .  A
C2276      C2277   1.407       .  A
C2276      H2281   1.084       .  S
C2277      C2598   1.435       .  S
C2277      C2278   1.396       .  A
C2278      C2279   1.391       .  A
C2278      H2282   1.085       .  S
C2279      C2280   1.396       .  A
C2279      C2570   1.458       .  S
C2280      H2283   1.085       .  S
C2284      C2568   1.437       .  S
C2284      C2285   1.405       .  A
C2284      C2289   1.400       .  A
C2285      C2286   1.403       .  A
C2285      H2290   1.084       .  S
C2286      C2603   1.436       .  S
C2286      C2287   1.394       .  A
C2287      C2288   1.400       .  A
C2287      H2291   1.083       .  S
C2288      C2289   1.403       .  A
C2288      C2558   1.483       .  S
C2289      H2292   1.084       .  S
C2293      C2573   1.475       .  S
C2294      C2295   1.461       .  A
C2294      C2548   1.583       .  S
C2295      C2541   1.460       .  S
C2296      C2561   1.580       .  S
C2297      C2298   1.403       .  A
C2297      C2518   1.475       .  S
C2298      C2528   1.497       .  S
C2299      C2515   1.443       .  S
C2299      C2300   1.411       .  A
C2299      C2304   1.403       .  A
C2300      C2301   1.408       .  A
C2300      H2305   1.084       .  S
C2301      C2593   1.444       .  S
C2301      C2302   1.395       .  A
C2302      C2303   1.401       .  A
C2302      H2306   1.084       .  S
C2303      C2304   1.400       .  A
C2303      C2551   1.481       .  S
C2304      H2307   1.085       .  S
C2308      C2583   1.443       .  S
C2308      C2309   1.400       .  A
C2308      C2313   1.409       .  A
C2309      C2310   1.397       .  A
C2309      H2314   1.085       .  S
C2310      C2311   1.397       .  A
C2310      C2531   1.469       .  S
C2311      C2312   1.400       .  A
C2311      H2315   1.085       .  S
C2312      C2514   1.443       .  S
C2312      C2313   1.409       .  A
C2313      H2316   1.084       .  S
C2317      C2511   1.447       .  S
C2317      C2318   1.401       .  A
C2317      C2322   1.412       .  A
C2318      C2319   1.398       .  A
C2318      H2323   1.085       .  S
C2319      C2320   1.392       .  A
C2319      C2521   1.464       .  S
C2320      C2321   1.397       .  A
C2320      H2324   1.085       .  S
C2321      C2589   1.442       .  S
C2321      C2322   1.411       .  A
C2322      H2325   1.084       .  S
C2326      C2582   1.445       .  S
C2326      C2327   1.399       .  A
C2326      C2331   1.409       .  A
C2327      C2328   1.402       .  A
C2327      H2332   1.084       .  S
C2328      C2329   1.402       .  A
C2328      C2538   1.484       .  S
C2329      C2330   1.400       .  A
C2329      H2333   1.084       .  S
C2330      C2510   1.445       .  S
C2330      C2331   1.409       .  A
C2331      H2334   1.084       .  S
C2335      C2507   1.435       .  S
C2335      C2336   1.403       .  A
C2335      C2340   1.397       .  A
C2336      C2337   1.404       .  A
C2336      H2341   1.084       .  S
C2337      C2599   1.438       .  S
C2337      C2338   1.399       .  A
C2338      C2339   1.401       .  A
C2338      H2342   1.084       .  S
C2339      C2340   1.399       .  A
C2339      C2498   1.478       .  S
C2340      H2343   1.085       .  S
C2344      C2495   1.437       .  S
C2344      C2345   1.403       .  A
C2344      C2349   1.399       .  A
C2345      C2346   1.403       .  A
C2345      H2350   1.084       .  S
C2346      C2602   1.438       .  S
C2346      C2347   1.399       .  A
C2347      C2348   1.402       .  A
C2347      H2351   1.084       .  S
C2348      C2349   1.402       .  A
C2348      C2486   1.482       .  S
C2349      H2352   1.084       .  S
C2353      C2501   1.474       .  S
C2354      C2355   1.410       .  A
C2354      C2476   1.485       .  S
C2355      C2466   1.480       .  S
C2356      C2489   1.479       .  S
C2357      C2358   1.408       .  A
C2357      C2446   1.480       .  S
C2358      C2456   1.482       .  S
C2359      C2444   1.442       .  S
C2359      C2360   1.408       .  A
C2359      C2364   1.398       .  A
C2360      C2361   1.408       .  A
C2360      H2365   1.084       .  S
C2361      C2591   1.445       .  S
C2361      C2362   1.400       .  A
C2362      C2363   1.402       .  A
C2362      H2366   1.084       .  S
C2363      C2364   1.400       .  A
C2363      C2449   1.482       .  S
C2364      H2367   1.085       .  S
C2368      C2585   1.444       .  S
C2368      C2369   1.409       .  A
C2368      C2373   1.400       .  A
C2369      C2370   1.408       .  A
C2369      H2374   1.084       .  S
C2370      C2442   1.444       .  S
C2370      C2371   1.399       .  A
C2371      C2372   1.401       .  A
C2371      H2375   1.084       .  S
C2372      C2373   1.401       .  A
C2372      C2459   1.482       .  S
C2373      H2376   1.084       .  S
C2377      C2440   1.445       .  S
C2377      C2378   1.408       .  A
C2377      C2382   1.400       .  A
C2378      C2379   1.408       .  A
C2378      H2383   1.084       .  S
C2379      C2596   1.445       .  S
C2379      C2380   1.400       .  A
C2380      C2381   1.403       .  A
C2380      H2384   1.084       .  S
C2381      C2382   1.403       .  A
C2381      C2479   1.487       .  S
C2382      H2385   1.084       .  S
C2386      C2587   1.442       .  S
C2386      C2387   1.399       .  A
C2386      C2391   1.408       .  A
C2387      C2388   1.401       .  A
C2387      H2392   1.084       .  S
C2388      C2389   1.401       .  A
C2388      C2469   1.482       .  S
C2389      C2390   1.399       .  A
C2389      H2393   1.084       .  S
C2390      C2438   1.443       .  S
C2390      C2391   1.408       .  A
C2391      H2394   1.084       .  S
O2395      C2405   1.281       .  A
O2396     Ni2403   1.919       .  S
O2396      C2406   1.279       .  A
O2397      C2407   1.281       .  A
O2398     Ni2403   1.924       .  S
O2398      C2408   1.280       .  A
O2399      C2408   1.281       .  A
O2400     Ni2404   1.923       .  S
O2400      C2407   1.280       .  A
O2401      C2406   1.281       .  A
O2402     Ni2404   1.922       .  S
O2402      C2405   1.280       .  A
C2405      C2516   1.439       .  S
C2406      C2443   1.438       .  S
C2407      C2439   1.441       .  S
C2408      C2512   1.443       .  S
O2409      C2419   1.280       .  A
O2410     Ni2789   1.915       .  S
O2410      C2420   1.278       .  A
O2411      C2421   1.280       .  A
O2412     Ni2417   1.918       .  S
O2412      C2422   1.279       .  A
O2413      C2422   1.281       .  A
O2414     Ni2418   1.917       .  S
O2414      C2421   1.279       .  A
O2415      C2420   1.280       .  A
O2416     Ni2790   1.916       .  S
O2416      C2419   1.279       .  A
Ni2417     O2782   1.915   1_554  S
Ni2418     O2788   1.916       .  S
C2419      C2567   1.432       .  S
C2420      C2508   1.431       .  S
C2421      C2496   1.433       .  S
C2422      C2580   1.435       .  S
O2423     Ni2431   1.922       .  S
O2423      C2433   1.280       .  A
O2424     Ni2431   1.921       .  S
O2424      C2434   1.281       .  A
O2425     Ni2431   1.923       .  S
O2425      C2435   1.280       .  A
O2426     Ni2431   1.920       .  S
O2426      C2436   1.281       .  A
O2427     Ni2432   1.920       .  S
O2427      C2436   1.279       .  A
O2428     Ni2432   1.918       .  S
O2428      C2435   1.281       .  A
O2429     Ni2432   1.924       .  S
O2429      C2434   1.280       .  A
O2430     Ni2432   1.921       .  S
O2430      C2433   1.281       .  A
Ni2431    Ni2432   2.393       .  S
C2433      C2441   1.440       .  S
C2434      C2509   1.441       .  S
C2435      C2513   1.439       .  S
C2436      C2437   1.439       .  S
C2437      C2438   1.208       .  T
C2439      C2440   1.209       .  T
C2441      C2442   1.209       .  T
C2443      C2444   1.208       .  T
C2445      C2446   1.400       .  A
C2445      C2450   1.396       .  A
C2446      C2447   1.401       .  A
C2447      C2448   1.395       .  A
C2447      H2452   1.083       .  S
C2448      C2449   1.406       .  A
C2448      H2453   1.082       .  S
C2449      C2450   1.407       .  A
C2450      H2454   1.082       .  S
C2455      C2456   1.401       .  A
C2455      C2460   1.396       .  A
C2456      C2457   1.401       .  A
C2457      C2458   1.395       .  A
C2457      H2462   1.083       .  S
C2458      C2459   1.407       .  A
C2458      H2463   1.083       .  S
C2459      C2460   1.407       .  A
C2460      H2464   1.083       .  S
C2465      C2466   1.401       .  A
C2465      C2470   1.395       .  A
C2465      H2471   1.083       .  S
C2466      C2467   1.400       .  A
C2467      C2468   1.395       .  A
C2467      H2472   1.083       .  S
C2468      C2469   1.407       .  A
C2468      H2473   1.083       .  S
C2469      C2470   1.406       .  A
C2470      H2474   1.083       .  S
C2475      C2476   1.401       .  A
C2475      C2480   1.397       .  A
C2476      C2477   1.401       .  A
C2477      C2478   1.396       .  A
C2477      H2482   1.083       .  S
C2478      C2479   1.408       .  A
C2478      H2483   1.082       .  S
C2479      C2480   1.408       .  A
C2480      H2484   1.082       .  S
C2485      C2486   1.407       .  A
C2485      C2490   1.394       .  A
C2485      H2491   1.082       .  S
C2486      C2487   1.407       .  A
C2487      C2488   1.394       .  A
C2487      H2492   1.082       .  S
C2488      C2489   1.400       .  A
C2489      C2490   1.400       .  A
C2495      C2496   1.205       .  T
C2497      C2498   1.407       .  A
C2497      C2502   1.393       .  A
C2497      H2503   1.082       .  S
C2498      C2499   1.405       .  A
C2499      C2500   1.393       .  A
C2499      H2504   1.082       .  S
C2500      C2501   1.400       .  A
C2501      C2502   1.399       .  A
C2507      C2508   1.204       .  T
C2509      C2510   1.210       .  T
C2511      C2512   1.211       .  T
C2513      C2514   1.208       .  T
C2515      C2516   1.208       .  T
C2517      C2518   1.404       .  A
C2517      C2522   1.396       .  A
C2518      C2519   1.407       .  A
C2519      C2520   1.394       .  A
C2519      H2524   1.083       .  S
C2520      C2521   1.401       .  A
C2520      H2525   1.083       .  S
C2521      C2522   1.403       .  A
C2522      H2526   1.083       .  S
C2527      C2528   1.403       .  A
C2527      C2532   1.397       .  A
C2528      C2529   1.404       .  A
C2529      C2530   1.396       .  A
C2529      H2534   1.083       .  S
C2530      C2531   1.401       .  A
C2530      H2535   1.083       .  S
C2531      C2532   1.402       .  A
C2532      H2536   1.083       .  S
C2537      C2538   1.409       .  A
C2537      C2542   1.396       .  A
C2537      H2543   1.082       .  S
C2538      C2539   1.409       .  A
C2539      C2540   1.396       .  A
C2539      H2544   1.082       .  S
C2540      C2541   1.404       .  A
C2541      C2542   1.410       .  A
C2542      H2546   1.083       .  S
C2547      C2548   1.426       .  A
C2547      C2552   1.404       .  A
C2548      C2549   1.421       .  A
C2549      C2550   1.388       .  A
C2549      H2554   1.058       .  S
C2550      C2551   1.390       .  A
C2550      H2555   1.084       .  S
C2551      C2552   1.395       .  A
C2552      H2556   1.084       .  S
C2557      C2558   1.395       .  A
C2557      C2562   1.391       .  A
C2557      H2563   1.082       .  S
C2558      C2559   1.392       .  A
C2559      C2560   1.394       .  A
C2559      H2564   1.084       .  S
C2560      C2561   1.426       .  A
C2561      C2562   1.418       .  A
C2567      C2568   1.204       .  T
C2569      C2570   1.401       .  A
C2569      C2574   1.395       .  A
C2569      H2575   1.083       .  S
C2570      C2571   1.398       .  A
C2571      C2572   1.390       .  A
C2571      H2576   1.083       .  S
C2572      C2573   1.408       .  A
C2573      C2574   1.402       .  A
C2579      C2580   1.206       .  T
C2581      C2582   1.209       .  T
C2583      C2584   1.208       .  T
C2585      C2586   1.209       .  T
C2587      C2588   1.208       .  T
C2589      C2590   1.208       .  T
C2591      C2592   1.209       .  T
C2593      C2594   1.210       .  T
C2595      C2596   1.209       .  T
C2597      C2598   1.204       .  T
C2599      C2600   1.205       .  T
C2601      C2602   1.205       .  T
C2603      C2604   1.204       .  T
O2605     Ni2613   1.921       .  S
O2605      C2615   1.280       .  A
O2606      C2616   1.282       .  A
O2607     Ni2613   1.913       .  S
O2607      C2617   1.277       .  A
O2608      C2618   1.279       .  A
O2609     Ni2614   1.920       .  S
O2609      C2618   1.280       .  A
O2610      C2617   1.281       .  A
O2611     Ni2614   1.912       .  S
O2611      C2616   1.277       .  A
O2612      C2615   1.279       .  A
C2615      C2972   1.433       .  S
C2616      C2976   1.433       .  S
C2617      C2969   1.432       .  S
C2618      C2973   1.433       .  S
O2619     Ni2627   1.923       .  S
O2619      C2629   1.282       .  A
O2620      C2630   1.281       .  A
O2621      C2631   1.280       .  A
O2622     Ni2627   1.920       .  S
O2622      C2632   1.279       .  A
O2623     Ni2628   1.925       .  S
O2623      C2632   1.283       .  A
O2624      C2631   1.281       .  A
O2625      C2630   1.280       .  A
O2626     Ni2628   1.919       .  S
O2626      C2629   1.278       .  A
Ni2627    Ni2628   2.392       .  S
C2629      C2962   1.439       .  S
C2630      C2967   1.441       .  S
C2631      C2964   1.440       .  S
C2632      C2966   1.442       .  S
O2633      C2643   1.281       .  A
O2634     Ni2641   1.922       .  S
O2634      C2644   1.280       .  A
O2635      C2645   1.281       .  A
O2636      C2646   1.280       .  A
O2637      C2646   1.281       .  A
O2638     Ni2642   1.920   1_556  S
O2638      C2645   1.279       .  A
O2639      C2644   1.281       .  A
O2640      C2643   1.280       .  A
C2643      C2953   1.441       .  S
C2644      C2958   1.440       .  S
C2645      C2960   1.438       .  S
C2646      C2956   1.439       .  S
C2647      C2951   1.439       .  S
C2647      C2648   1.407       .  A
C2647      C2652   1.398       .  A
C2648      C2649   1.407       .  A
C2648      H2653   1.084       .  S
C2649      C2970   1.435       .  S
C2649      C2650   1.396       .  A
C2650      C2651   1.391       .  A
C2650      H2654   1.085       .  S
C2651      C2652   1.396       .  A
C2651      C2942   1.458       .  S
C2652      H2655   1.085       .  S
C2656      C2940   1.437       .  S
C2656      C2657   1.405       .  A
C2656      C2661   1.400       .  A
C2657      C2658   1.403       .  A
C2657      H2662   1.084       .  S
C2658      C2975   1.436       .  S
C2658      C2659   1.394       .  A
C2659      C2660   1.400       .  A
C2659      H2663   1.083       .  S
C2660      C2661   1.403       .  A
C2660      C2930   1.483       .  S
C2661      H2664   1.084       .  S
C2665      C2945   1.475       .  S
C2666      C2667   1.461       .  A
C2666      C2920   1.583       .  S
C2667      C2913   1.460       .  S
C2668      C2933   1.580       .  S
C2669      C2670   1.403       .  A
C2669      C2890   1.475       .  S
C2670      C2900   1.497       .  S
C2671      C2887   1.443       .  S
C2671      C2672   1.411       .  A
C2671      C2676   1.403       .  A
C2672      C2673   1.408       .  A
C2672      H2677   1.084       .  S
C2673      C2965   1.444       .  S
C2673      C2674   1.395       .  A
C2674      C2675   1.401       .  A
C2674      H2678   1.084       .  S
C2675      C2676   1.400       .  A
C2675      C2923   1.481       .  S
C2676      H2679   1.085       .  S
C2680      C2955   1.443       .  S
C2680      C2681   1.400       .  A
C2680      C2685   1.409       .  A
C2681      C2682   1.397       .  A
C2681      H2686   1.085       .  S
C2682      C2683   1.397       .  A
C2682      C2903   1.469       .  S
C2683      C2684   1.400       .  A
C2683      H2687   1.085       .  S
C2684      C2886   1.443       .  S
C2684      C2685   1.409       .  A
C2685      H2688   1.084       .  S
C2689      C2883   1.447       .  S
C2689      C2690   1.401       .  A
C2689      C2694   1.412       .  A
C2690      C2691   1.398       .  A
C2690      H2695   1.085       .  S
C2691      C2692   1.392       .  A
C2691      C2893   1.464       .  S
C2692      C2693   1.397       .  A
C2692      H2696   1.085       .  S
C2693      C2961   1.442       .  S
C2693      C2694   1.411       .  A
C2694      H2697   1.084       .  S
C2698      C2954   1.445       .  S
C2698      C2699   1.399       .  A
C2698      C2703   1.409       .  A
C2699      C2700   1.402       .  A
C2699      H2704   1.084       .  S
C2700      C2701   1.402       .  A
C2700      C2910   1.484       .  S
C2701      C2702   1.400       .  A
C2701      H2705   1.084       .  S
C2702      C2882   1.445       .  S
C2702      C2703   1.409       .  A
C2703      H2706   1.084       .  S
C2707      C2879   1.435       .  S
C2707      C2708   1.403       .  A
C2707      C2712   1.397       .  A
C2708      C2709   1.404       .  A
C2708      H2713   1.084       .  S
C2709      C2971   1.438       .  S
C2709      C2710   1.399       .  A
C2710      C2711   1.401       .  A
C2710      H2714   1.084       .  S
C2711      C2712   1.399       .  A
C2711      C2870   1.478       .  S
C2712      H2715   1.085       .  S
C2716      C2867   1.437       .  S
C2716      C2717   1.403       .  A
C2716      C2721   1.399       .  A
C2717      C2718   1.403       .  A
C2717      H2722   1.084       .  S
C2718      C2974   1.438       .  S
C2718      C2719   1.399       .  A
C2719      C2720   1.402       .  A
C2719      H2723   1.084       .  S
C2720      C2721   1.402       .  A
C2720      C2858   1.482       .  S
C2721      H2724   1.084       .  S
C2725      C2873   1.474       .  S
C2726      C2727   1.410       .  A
C2726      C2848   1.485       .  S
C2727      C2838   1.480       .  S
C2728      C2861   1.479       .  S
C2729      C2730   1.408       .  A
C2729      C2818   1.480       .  S
C2730      C2828   1.482       .  S
C2731      C2816   1.442       .  S
C2731      C2732   1.408       .  A
C2731      C2736   1.398       .  A
C2732      C2733   1.408       .  A
C2732      H2737   1.084       .  S
C2733      C2963   1.445       .  S
C2733      C2734   1.400       .  A
C2734      C2735   1.402       .  A
C2734      H2738   1.084       .  S
C2735      C2736   1.400       .  A
C2735      C2821   1.482       .  S
C2736      H2739   1.085       .  S
C2740      C2957   1.444       .  S
C2740      C2741   1.409       .  A
C2740      C2745   1.400       .  A
C2741      C2742   1.408       .  A
C2741      H2746   1.084       .  S
C2742      C2814   1.444       .  S
C2742      C2743   1.399       .  A
C2743      C2744   1.401       .  A
C2743      H2747   1.084       .  S
C2744      C2745   1.401       .  A
C2744      C2831   1.482       .  S
C2745      H2748   1.084       .  S
C2749      C2812   1.445       .  S
C2749      C2750   1.408       .  A
C2749      C2754   1.400       .  A
C2750      C2751   1.408       .  A
C2750      H2755   1.084       .  S
C2751      C2968   1.445       .  S
C2751      C2752   1.400       .  A
C2752      C2753   1.403       .  A
C2752      H2756   1.084       .  S
C2753      C2754   1.403       .  A
C2753      C2851   1.487       .  S
C2754      H2757   1.084       .  S
C2758      C2959   1.442       .  S
C2758      C2759   1.399       .  A
C2758      C2763   1.408       .  A
C2759      C2760   1.401       .  A
C2759      H2764   1.084       .  S
C2760      C2761   1.401       .  A
C2760      C2841   1.482       .  S
C2761      C2762   1.399       .  A
C2761      H2765   1.084       .  S
C2762      C2810   1.443       .  S
C2762      C2763   1.408       .  A
C2763      H2766   1.084       .  S
O2767      C2777   1.281       .  A
O2768     Ni2775   1.919       .  S
O2768      C2778   1.279       .  A
O2769      C2779   1.281       .  A
O2770     Ni2775   1.924       .  S
O2770      C2780   1.280       .  A
O2771      C2780   1.281       .  A
O2772     Ni2776   1.923       .  S
O2772      C2779   1.280       .  A
O2773      C2778   1.281       .  A
O2774     Ni2776   1.922       .  S
O2774      C2777   1.280       .  A
C2777      C2888   1.439       .  S
C2778      C2815   1.438       .  S
C2779      C2811   1.441       .  S
C2780      C2884   1.443       .  S
O2781      C2791   1.280       .  A
O2782      C2792   1.278       .  A
O2783      C2793   1.280       .  A
O2784     Ni2789   1.918       .  S
O2784      C2794   1.279       .  A
O2785      C2794   1.281       .  A
O2786     Ni2790   1.917   1_556  S
O2786      C2793   1.279       .  A
O2787      C2792   1.280       .  A
O2788      C2791   1.279       .  A
C2791      C2939   1.432       .  S
C2792      C2880   1.431       .  S
C2793      C2868   1.433       .  S
C2794      C2952   1.435       .  S
O2795     Ni2803   1.922       .  S
O2795      C2805   1.280       .  A
O2796     Ni2803   1.921       .  S
O2796      C2806   1.281       .  A
O2797     Ni2803   1.923       .  S
O2797      C2807   1.280       .  A
O2798     Ni2803   1.920       .  S
O2798      C2808   1.281       .  A
O2799     Ni2804   1.920       .  S
O2799      C2808   1.279       .  A
O2800     Ni2804   1.918       .  S
O2800      C2807   1.281       .  A
O2801     Ni2804   1.924       .  S
O2801      C2806   1.280       .  A
O2802     Ni2804   1.921       .  S
O2802      C2805   1.281       .  A
Ni2803    Ni2804   2.393       .  S
C2805      C2813   1.440       .  S
C2806      C2881   1.441       .  S
C2807      C2885   1.439       .  S
C2808      C2809   1.439       .  S
C2809      C2810   1.208       .  T
C2811      C2812   1.209       .  T
C2813      C2814   1.209       .  T
C2815      C2816   1.208       .  T
C2817      C2818   1.400       .  A
C2817      C2822   1.396       .  A
C2818      C2819   1.401       .  A
C2819      C2820   1.395       .  A
C2819      H2824   1.083       .  S
C2820      C2821   1.406       .  A
C2820      H2825   1.082       .  S
C2821      C2822   1.407       .  A
C2822      H2826   1.082       .  S
C2827      C2828   1.401       .  A
C2827      C2832   1.396       .  A
C2828      C2829   1.401       .  A
C2829      C2830   1.395       .  A
C2829      H2834   1.083       .  S
C2830      C2831   1.407       .  A
C2830      H2835   1.083       .  S
C2831      C2832   1.407       .  A
C2832      H2836   1.083       .  S
C2837      C2838   1.401       .  A
C2837      C2842   1.395       .  A
C2837      H2843   1.083       .  S
C2838      C2839   1.400       .  A
C2839      C2840   1.395       .  A
C2839      H2844   1.083       .  S
C2840      C2841   1.407       .  A
C2840      H2845   1.083       .  S
C2841      C2842   1.406       .  A
C2842      H2846   1.083       .  S
C2847      C2848   1.401       .  A
C2847      C2852   1.397       .  A
C2848      C2849   1.401       .  A
C2849      C2850   1.396       .  A
C2849      H2854   1.083       .  S
C2850      C2851   1.408       .  A
C2850      H2855   1.082       .  S
C2851      C2852   1.408       .  A
C2852      H2856   1.082       .  S
C2857      C2858   1.407       .  A
C2857      C2862   1.394       .  A
C2857      H2863   1.082       .  S
C2858      C2859   1.407       .  A
C2859      C2860   1.394       .  A
C2859      H2864   1.082       .  S
C2860      C2861   1.400       .  A
C2861      C2862   1.400       .  A
C2867      C2868   1.205       .  T
C2869      C2870   1.407       .  A
C2869      C2874   1.393       .  A
C2869      H2875   1.082       .  S
C2870      C2871   1.405       .  A
C2871      C2872   1.393       .  A
C2871      H2876   1.082       .  S
C2872      C2873   1.400       .  A
C2873      C2874   1.399       .  A
C2879      C2880   1.204       .  T
C2881      C2882   1.210       .  T
C2883      C2884   1.211       .  T
C2885      C2886   1.208       .  T
C2887      C2888   1.208       .  T
C2889      C2890   1.404       .  A
C2889      C2894   1.396       .  A
C2890      C2891   1.407       .  A
C2891      C2892   1.394       .  A
C2891      H2896   1.083       .  S
C2892      C2893   1.401       .  A
C2892      H2897   1.083       .  S
C2893      C2894   1.403       .  A
C2894      H2898   1.083       .  S
C2899      C2900   1.403       .  A
C2899      C2904   1.397       .  A
C2900      C2901   1.404       .  A
C2901      C2902   1.396       .  A
C2901      H2906   1.083       .  S
C2902      C2903   1.401       .  A
C2902      H2907   1.083       .  S
C2903      C2904   1.402       .  A
C2904      H2908   1.083       .  S
C2909      C2910   1.409       .  A
C2909      C2914   1.396       .  A
C2909      H2915   1.082       .  S
C2910      C2911   1.409       .  A
C2911      C2912   1.396       .  A
C2911      H2916   1.082       .  S
C2912      C2913   1.404       .  A
C2913      C2914   1.410       .  A
C2914      H2918   1.083       .  S
C2919      C2920   1.426       .  A
C2919      C2924   1.404       .  A
C2920      C2921   1.421       .  A
C2921      C2922   1.388       .  A
C2921      H2926   1.058       .  S
C2922      C2923   1.390       .  A
C2922      H2927   1.084       .  S
C2923      C2924   1.395       .  A
C2924      H2928   1.084       .  S
C2929      C2930   1.395       .  A
C2929      C2934   1.391       .  A
C2929      H2935   1.082       .  S
C2930      C2931   1.392       .  A
C2931      C2932   1.394       .  A
C2931      H2936   1.084       .  S
C2932      C2933   1.426       .  A
C2933      C2934   1.418       .  A
C2939      C2940   1.204       .  T
C2941      C2942   1.401       .  A
C2941      C2946   1.395       .  A
C2941      H2947   1.083       .  S
C2942      C2943   1.398       .  A
C2943      C2944   1.390       .  A
C2943      H2948   1.083       .  S
C2944      C2945   1.408       .  A
C2945      C2946   1.402       .  A
C2951      C2952   1.206       .  T
C2953      C2954   1.209       .  T
C2955      C2956   1.208       .  T
C2957      C2958   1.209       .  T
C2959      C2960   1.208       .  T
C2961      C2962   1.208       .  T
C2963      C2964   1.209       .  T
C2965      C2966   1.210       .  T
C2967      C2968   1.209       .  T
C2969      C2970   1.204       .  T
C2971      C2972   1.205       .  T
C2973      C2974   1.205       .  T
C2975      C2976   1.204       .  T
