geometry optimzed in LAMMPS
_audit_creation_date              2020-11-30 
_audit_creation_method            'lammps2cif' 
_symmetry_space_group_name_H-M    'P1' 
_symmetry_Int_Tables_number       1 
_symmetry_cell_setting            triclinic 
loop_ 
_symmetry_equiv_pos_as_xyz 
  x,y,z 
_cell_length_a                    29.67072215 
_cell_length_b                    32.404083906987786 
_cell_length_c                    68.71421836554056 
_cell_angle_alpha                 92.33602330637494 
_cell_angle_beta                  88.27295640194441 
_cell_angle_gamma                 123.48157338767783 
loop_ 
_atom_site_label 
_atom_site_type_symbol 
_atom_site_fract_x 
_atom_site_fract_y 
_atom_site_fract_z 
_atom_site_charge 
O1          O  0.30766930  0.05890284  0.97635354    -0.79300
O2          O  0.30823182  0.20639616  0.03682656    -0.64000
O3          O  0.32481197  0.13205070  0.99786307    -1.10600
C4          C  0.43341742  0.25945891  0.97012046     1.07600
O5          O  0.30766713  0.26364197  0.01883463    -0.77200
O6          O  0.30905393  0.26366993  0.97934811    -0.64800
Ni7        Ni  0.36264328  0.10273922  0.99637867     1.34900
C8          C  0.29990642  0.24005617  0.96322055     0.86300
O9          O  0.29392103  0.11004244  0.03520452    -0.77700
O10         O  0.31574163  0.06087639  0.01800645    -0.88000
C11         C  0.29275109  0.23624679  0.03393223     0.85900
O12         O  0.42131182  0.14836968  0.01523976    -0.66200
O13         O  0.41876853  0.28804353  0.97808265    -0.85500
C14         C  0.42939770  0.18469532  0.02649944     0.86800
C15         C  0.29300089  0.06927838  0.03272332     1.08300
H16         H  0.38226858  0.22607511  0.00144441     0.40100
O17         O  0.34519771  0.21437152  0.99952714    -1.08100
O18         O  0.31368147  0.20881230  0.96005383    -0.64800
Ni19       Ni  0.32555892  0.17094064  0.97821416     1.26300
O20         O  0.39398203  0.19583769  0.02799893    -0.65000
O21         O  0.40308211  0.21108875  0.97098175    -0.77300
C22         C  0.28971315  0.07081657  0.96193706     0.86100
O23         O  0.30418979  0.11640412  0.95924434    -0.64500
Ni24       Ni  0.36224861  0.27703042  0.99845515     1.27400
Ni25       Ni  0.32044515  0.16688218  0.01843834     1.26100
H26         H  0.28751307  0.10441624  0.99764571     0.40700
O27         O  0.22745073  0.16714045  0.51663899    -0.79300
O28         O  0.38192651  0.16994435  0.46244042    -0.64000
O29         O  0.27749298  0.12304082  0.50455039    -1.10600
C30         C  0.44594804  0.20615981  0.53556905     1.07600
O31         O  0.45456093  0.19007904  0.48061620    -0.77200
O32         O  0.37276318  0.08225438  0.51749339    -0.64800
Ni33       Ni  0.21451878  0.11365853  0.49812844     1.34900
C34         C  0.33649056  0.07259616  0.53030386     0.86300
O35         O  0.29372705  0.07495094  0.47813978    -0.77700
O36         O  0.20841350  0.06035766  0.47939345    -0.88000
C37         C  0.43450503  0.19360169  0.46489616     0.85900
O38         O  0.23812350  0.16137635  0.47790005    -0.66200
O39         O  0.45611204  0.18504624  0.52131183    -0.85500
C40         C  0.28351926  0.20198801  0.47528637     0.86800
C41         C  0.24190539  0.04685741  0.47419145     1.08300
H42         H  0.39607964  0.20324427  0.50054041     0.40100
O43         O  0.37191760  0.16785083  0.50185863    -1.08100
O44         O  0.32168432  0.10209332  0.53315968    -0.64800
Ni45       Ni  0.32993195  0.16063754  0.52399083     1.26300
O46         O  0.32707581  0.20685723  0.48104086    -0.65000
O47         O  0.39907008  0.20147620  0.53833556    -0.77300
C48         C  0.27177493  0.20621919  0.52319391     0.86100
O49         O  0.31940129  0.21399257  0.51945661    -0.64500
Ni50       Ni  0.41327840  0.13960064  0.49987552     1.27400
Ni51       Ni  0.32147659  0.14442821  0.48177391     1.26100
H52         H  0.26602811  0.08994577  0.50777294     0.40700
N53         N  0.34050384  0.51728352  0.72315629    -0.35000
N54         N  0.32943531  0.44472298  0.74677733    -0.55600
N55         N  0.35434376  0.51850294  0.77853059    -0.35000
N56         N  0.35842962  0.08717704  0.75372547    -0.55600
C57         C  0.31822562  0.47734900  0.71095255     0.28600
C58         C  0.33179831  0.04764989  0.71537690     0.28600
C59         C  0.33203974  0.47482735  0.78754742     0.28600
C60         C  0.34614311  0.04687746  0.79136409     0.28600
C61         C  0.33751775  0.42719392  0.72974769     0.37200
C62         C  0.34057811  0.42505357  0.76122958     0.37200
C63         C  0.37690459  0.11692812  0.73841810     0.37200
C64         C  0.37909132  0.11672271  0.76962443     0.37200
C65         C  0.29258595  0.48355045  0.69608381    -0.20300
C66         C  0.30276375  0.02727061  0.69841839    -0.20300
C67         C  0.31388902  0.47880981  0.80580226    -0.20300
C68         C  0.32204312  0.02211181  0.80844532    -0.20300
C69         C  0.35379676  0.39561794  0.73337220    -0.21300
C70         C  0.35551088  0.39417370  0.75348810    -0.21300
C71         C  0.40805757  0.16606628  0.74438586    -0.21300
C72         C  0.40835779  0.16586133  0.76438760    -0.21300
C73         C  0.32864407  0.43997328  0.71145618    -0.16700
C74         C  0.36401369  0.09853477  0.71938013    -0.16700
C75         C  0.36897865  0.09821893  0.78848053    -0.16700
C76         C  0.33496335  0.43405537  0.78111532    -0.16700
H77         H  0.27563520  0.46042430  0.68337794     0.16200
H78         H  0.29307557  0.04536133  0.68815108     0.16200
H79         H  0.29600903  0.45107409  0.81671840     0.16200
H80         H  0.31589057  0.03591812  0.82206982     0.16200
H81         H  0.36418262  0.37657283  0.72272557     0.14500
H82         H  0.36829870  0.37455746  0.76157761     0.14500
H83         H  0.42746660  0.19830555  0.73539680     0.14500
H84         H  0.42849166  0.19810049  0.77377599     0.14500
H85         H  0.37076558  0.52690549  0.73315227     0.27800
H86         H  0.37716299  0.52790330  0.76573294     0.27800
N87         N  0.09371329  0.10276318  0.72249727    -0.35000
N88         N  0.11966582  0.04909626  0.74533707    -0.55600
N89         N  0.07112175  0.07788077  0.77602031    -0.35000
N90         N  0.04575881  0.13380757  0.75442930    -0.55600
C91         C  0.09908172  0.07495725  0.70844139     0.28600
C92         C  0.06771998  0.12150210  0.71463763     0.28600
C93         C  0.07867978  0.04398896  0.78296031     0.28600
C94         C  0.03700690  0.08131342  0.78834549     0.28600
C95         C  0.14654740  0.04989069  0.72902608     0.37200
C96         C  0.14650681  0.04919815  0.76090833     0.37200
C97         C  0.06376246  0.17083833  0.74183211     0.37200
C98         C  0.04614990  0.15195568  0.77256615     0.37200
C99         C  0.07532299  0.07633537  0.69149221    -0.20300
C100        C  0.05426612  0.10402953  0.69562417    -0.20300
C101        C  0.04589814  0.02248910  0.79909110    -0.20300
C102        C  0.02020754  0.04654400  0.80269199    -0.20300
C103        C  0.18911006  0.04614048  0.73428842    -0.21300
C104        C  0.19029395  0.04770448  0.75457535    -0.21300
C105        C  0.07302805  0.21285912  0.75177849    -0.21300
C106        C  0.06210443  0.20097380  0.77134714    -0.21300
C107        C  0.13227505  0.05584973  0.71009858    -0.16700
C108        C  0.07263068  0.16531942  0.72177098    -0.16700
C109        C  0.03499584  0.12387231  0.78965619    -0.16700
C110        C  0.12820311  0.04869549  0.78024813    -0.16700
H111        H  0.07643784  0.06357659  0.67690799     0.16200
H112        H  0.03754195  0.11559746  0.68500112     0.16200
H113        H  0.04707233  0.99783760  0.80893290     0.16200
H114        H  0.99774554  0.04270320  0.81585539     0.16200
H115        H  0.21724449  0.04360139  0.72480883     0.14500
H116        H  0.21900153  0.04649701  0.76346566     0.14500
H117        H  0.08806330  0.24862692  0.74574950     0.14500
H118        H  0.06814797  0.22635050  0.78326217     0.14500
H119        H  0.11629708  0.11715382  0.73517618     0.27800
H120        H  0.09897994  0.10578334  0.76688945     0.27800
N121        N  0.48908760  0.31412124  0.76917413    -0.35000
N122        N  0.07347354  0.35310119  0.74103663    -0.55600
N123        N  0.48246103  0.32376156  0.71571706    -0.35000
N124        N  0.39887978  0.28251074  0.74364453    -0.55600
C125        C  0.03049835  0.31837431  0.77884999     0.28600
C126        C  0.44450532  0.28754651  0.78028260     0.28600
C127        C  0.02363645  0.32992049  0.70433861     0.28600
C128        C  0.43686052  0.29585516  0.70512417     0.28600
C129        C  0.10386464  0.37537514  0.75699961     0.37200
C130        C  0.10062330  0.38135184  0.72570105     0.37200
C131        C  0.37458822  0.28251728  0.76028894     0.37200
C132        C  0.36918047  0.28248010  0.72936303     0.37200
C133        C  0.01120935  0.29176828  0.79577757    -0.20300
C134        C  0.45721516  0.27365683  0.79696968    -0.20300
C135        C  0.00333888  0.30397498  0.68692846    -0.20300
C136        C  0.44930308  0.28393487  0.68728932    -0.20300
C137        C  0.15258339  0.41774069  0.75175433    -0.21300
C138        C  0.15052604  0.42152888  0.73172148    -0.21300
C139        C  0.32678278  0.27891277  0.75674644    -0.21300
C140        C  0.32311918  0.27856479  0.73677382    -0.21300
C141        C  0.08507702  0.35686673  0.77585411    -0.16700
C142        C  0.39740733  0.28738810  0.77826392    -0.16700
C143        C  0.38569440  0.28699479  0.70999669    -0.16700
C144        C  0.07831338  0.36910178  0.70681981    -0.16700
H145        H  0.03500257  0.29090902  0.80717219     0.16200
H146        H  0.43093297  0.25563802  0.80933941     0.16200
H147        H  0.02627601  0.30641818  0.67405792     0.16200
H148        H  0.42321170  0.26812484  0.67500771     0.16200
H149        H  0.18529767  0.44354664  0.76131671     0.14500
H150        H  0.18144403  0.45074475  0.72278577     0.14500
H151        H  0.29871684  0.27826271  0.76736149     0.14500
H152        H  0.29182946  0.27781467  0.72875110     0.14500
H153        H  0.49289067  0.33762754  0.75848008     0.27800
H154        H  0.48670943  0.34591634  0.72783777     0.27800
C155        C  0.48518384  0.22617341  0.55227845     0.03900
C156        C  0.04457653  0.25650784  0.55247808     0.03900
C157        C  0.07024808  0.25639254  0.56980602    -0.16700
C158        C  0.04056190  0.22874038  0.58613176     0.03900
C159        C  0.48400827  0.20232685  0.58553970     0.03900
C160        C  0.45766583  0.20194324  0.56928992    -0.16700
H161        H  0.41378949  0.18035298  0.56996677     0.05900
H162        H  0.11388553  0.27857758  0.57089060     0.05900
C163        C  0.28464148  0.47790533  0.54287112     0.03900
C164        C  0.31358052  0.03164705  0.54532467     0.03900
C165        C  0.31201412  0.05060227  0.56443883    -0.16700
C166        C  0.27841690  0.02032588  0.57954027     0.03900
C167        C  0.24827164  0.46875618  0.57611149     0.03900
C168        C  0.25620294  0.44901037  0.55916687    -0.16700
H169        H  0.23454119  0.40884028  0.55812113     0.05900
H170        H  0.33415127  0.09024422  0.56729158     0.05900
C171        C  0.28123906  0.25481503  0.94635744     0.03900
C172        C  0.24285960  0.26922785  0.94587489     0.03900
C173        C  0.23176044  0.28078892  0.92757507    -0.16700
C174        C  0.26243631  0.28613887  0.91101223     0.03900
C175        C  0.30467287  0.27898073  0.91264467     0.03900
C176        C  0.31059608  0.25997376  0.92932444    -0.16700
H177        H  0.34139622  0.25191838  0.92919458     0.05900
H178        H  0.20027258  0.28787256  0.92626745     0.05900
C179        C  0.26571019  0.23240532  0.54066129     0.03900
C180        C  0.24297226  0.26237648  0.54199722     0.03900
C181        C  0.24095598  0.28207116  0.56056838    -0.16700
C182        C  0.25891244  0.27255298  0.57731970     0.03900
C183        C  0.27276726  0.23750108  0.57623618     0.03900
C184        C  0.27719529  0.21881989  0.55817492    -0.16700
H185        H  0.28973125  0.19301364  0.55783302     0.05900
H186        H  0.22997014  0.30898533  0.56179841     0.05900
C187        C  0.23158974  0.47928764  0.94645821     0.03900
C188        C  0.25167991  0.03171058  0.94679125     0.03900
C189        C  0.23908952  0.04999125  0.93068752    -0.16700
C190        C  0.21413897  0.02107026  0.91374451     0.03900
C191        C  0.20998292  0.47481896  0.91186001     0.03900
C192        C  0.21543519  0.45376400  0.92821508    -0.16700
H193        H  0.20349054  0.41554032  0.92682678     0.05900
H194        H  0.24896001  0.08754173  0.93112327     0.05900
C195        C  0.03128574  0.28450375  0.95774257     0.03900
C196        C  0.48034451  0.28072461  0.95552514     0.03900
C197        C  0.45873162  0.26936288  0.93653605    -0.16700
C198        C  0.47572826  0.24943970  0.92184291     0.03900
C199        C  0.01728109  0.24227120  0.92540826     0.03900
C200        C  0.04421197  0.25960171  0.94314762    -0.16700
H201        H  0.07904736  0.25733968  0.94453712     0.05900
H202        H  0.42309116  0.26937345  0.93387137     0.05900
O203        O  0.06174519  0.29441341  0.52091671    -0.79300
O204        O  0.19582299  0.27497392  0.48242197    -0.64000
O205        O  0.14405930  0.31898500  0.49964298    -1.10600
C206        C  0.27199649  0.44225934  0.52583929     1.07600
O207        O  0.28814561  0.32189231  0.48407069    -0.77200
O208        O  0.28349044  0.33200117  0.52278874    -0.64800
Ni209      Ni  0.10105574  0.34569924  0.50173048     1.34900
C210        C  0.23961589  0.29068287  0.52613014     0.86300
O211        O  0.11840042  0.28762071  0.46259667    -0.77700
O212        O  0.05903861  0.30042706  0.47982641    -0.88000
C213        C  0.24279323  0.28192657  0.47852654     0.85900
O214        O  0.14007501  0.40414299  0.48443301    -0.66200
O215        O  0.30750050  0.43099563  0.52052490    -0.85500
C216        C  0.17788513  0.41537579  0.47211809     0.86800
C217        C  0.07074720  0.28114057  0.46523425     1.08300
H218        H  0.24954640  0.39806746  0.49334160     0.40100
O219        O  0.23848806  0.36525933  0.49674189    -1.08100
O220        O  0.19431920  0.28304446  0.52068418    -0.64800
Ni221      Ni  0.19546021  0.34352435  0.51955744     1.26300
O222        O  0.19357374  0.38657004  0.46948557    -0.65000
O223        O  0.22012028  0.41220204  0.52213060    -0.77300
C224        C  0.08242209  0.29072754  0.53649494     0.86100
O225        O  0.13509375  0.31628435  0.53913795    -0.64500
Ni226      Ni  0.30257951  0.37723884  0.50205094     1.27400
Ni227      Ni  0.18626547  0.32809766  0.47760001     1.26100
H228        H  0.12090253  0.28346626  0.50081348     0.40700
O229        O  0.20078287  0.25148734  0.97801152    -0.79300
O230        O  0.19923462  0.39980280  0.03729121    -0.64000
O231        O  0.16960782  0.30431247  0.99738356    -1.10600
C232        C  0.21274244  0.44483705  0.96336307     1.07600
O233        O  0.19203260  0.45449901  0.01955666    -0.77200
O234        O  0.08322241  0.35671552  0.98125945    -0.64800
Ni235      Ni  0.14787042  0.24032436  0.99862883     1.34900
C236        C  0.08043423  0.32217018  0.97033016     0.86300
O237        O  0.10562495  0.30637341  0.02408914    -0.77700
O238        O  0.09113722  0.22982300  0.01871142    -0.88000
C239        C  0.20858073  0.44373835  0.03475118     0.85900
O240        O  0.20074075  0.25416779  0.01813258    -0.66200
O241        O  0.18567738  0.44988276  0.97749492    -0.85500
C242        C  0.21027348  0.27881673  0.03413032     0.86800
C243        C  0.07584650  0.25841710  0.02588519     1.08300
H244        H  0.22165590  0.41456065  0.99923524     0.40100
O245        O  0.18537712  0.38524645  0.99855142    -1.08100
O246        O  0.12144595  0.31925331  0.96818534    -0.64800
Ni247      Ni  0.19354404  0.35152108  0.97833193     1.26300
O248        O  0.19537272  0.30941078  0.03708194    -0.65000
O249        O  0.21738408  0.40705638  0.96133646    -0.77300
C250        C  0.21602918  0.27838373  0.96272654     0.86100
O251        O  0.20768845  0.31316535  0.96022346    -0.64500
Ni252      Ni  0.14055915  0.40749524  0.99938910     1.27400
Ni253      Ni  0.18392109  0.34681927  0.01845608     1.26100
H254        H  0.13265785  0.29209425  0.99514906     0.40700
N255        N  0.01273164  0.18995408  0.23108522    -0.35000
N256        N  0.42160186  0.13447804  0.25635383    -0.55600
N257        N  0.00332371  0.15939660  0.28457224    -0.35000
N258        N  0.09442831  0.21659893  0.25934466    -0.55600
C259        C  0.47065615  0.18197122  0.22066451     0.28600
C260        C  0.05826192  0.22557082  0.22215806     0.28600
C261        C  0.45852988  0.14334024  0.29563287     0.28600
C262        C  0.04578143  0.18544019  0.29673361     0.28600
C263        C  0.39446769  0.11730847  0.23944899     0.37200
C264        C  0.38837609  0.10461596  0.27043512     0.37200
C265        C  0.12562729  0.22820190  0.24327505     0.37200
C266        C  0.12079057  0.21187013  0.27378770     0.37200
C267        C  0.48954431  0.21418220  0.20535540    -0.20300
C268        C  0.04478539  0.24154727  0.20624507    -0.20300
C269        C  0.47308458  0.15976538  0.31468161    -0.20300
C270        C  0.02766457  0.18716613  0.31530322    -0.20300
C271        C  0.34205821  0.07766598  0.24299224    -0.21300
C272        C  0.33791051  0.07026497  0.26283225    -0.21300
C273        C  0.17384765  0.23336298  0.24766245    -0.21300
C274        C  0.17075918  0.22308578  0.26722310    -0.21300
C275        C  0.41871926  0.13790182  0.22133028    -0.16700
C276        C  0.10976171  0.23431643  0.22508293    -0.16700
C277        C  0.09872022  0.19816070  0.29262544    -0.16700
C278        C  0.40487007  0.10846682  0.28979892    -0.16700
H279        H  0.46612030  0.21412998  0.19360508     0.16200
H280        H  0.07173762  0.26646379  0.19523595     0.16200
H281        H  0.44709117  0.14952661  0.32731826     0.16200
H282        H  0.05119241  0.20284261  0.32843634     0.16200
H283        H  0.31066750  0.05484874  0.23255147     0.14500
H284        H  0.30287789  0.04134696  0.27054608     0.14500
H285        H  0.20767255  0.24397357  0.23795069     0.14500
H286        H  0.20146845  0.22406962  0.27567505     0.14500
H287        H  0.01076286  0.16475242  0.24052386     0.27800
H288        H  0.00428795  0.14524697  0.27082788     0.27800
N289        N  0.36008069  0.35045718  0.27776468    -0.35000
N290        N  0.38466231  0.30515933  0.24706903    -0.55600
N291        N  0.35772107  0.35832583  0.22194547    -0.35000
N292        N  0.33007735  0.40140494  0.25347015    -0.55600
C293        C  0.36010129  0.31364528  0.28622930     0.28600
C294        C  0.33181160  0.36225203  0.28974880     0.28600
C295        C  0.36009023  0.32639784  0.20932675     0.28600
C296        C  0.33384970  0.37713271  0.21244121     0.28600
C297        C  0.40647050  0.29479848  0.26149382     0.37200
C298        C  0.40261507  0.29667198  0.23022597     0.37200
C299        C  0.33558335  0.42584644  0.27058804     0.37200
C300        C  0.33377256  0.43036128  0.23909646     0.37200
C301        C  0.33000669  0.30086148  0.30323619    -0.20300
C302        C  0.31212537  0.33147026  0.30546325    -0.20300
C303        C  0.33645877  0.32412978  0.19192447    -0.20300
C304        C  0.32023968  0.35608098  0.19388371    -0.20300
C305        C  0.43679717  0.27747947  0.25381965    -0.21300
C306        C  0.43358431  0.27797956  0.23386711    -0.21300
C307        C  0.34192363  0.47046779  0.26714949    -0.21300
C308        C  0.34062675  0.47312542  0.24707873    -0.21300
C309        C  0.39637362  0.29987051  0.28122863    -0.16700
C310        C  0.33352070  0.40631550  0.28890023    -0.16700
C311        C  0.33091976  0.41763125  0.21900325    -0.16700
C312        C  0.39034186  0.30530938  0.21182309    -0.16700
H313        H  0.32597241  0.27580413  0.31387387     0.16200
H314        H  0.29186295  0.33440384  0.31819905     0.16200
H315        H  0.33540790  0.30484664  0.17857440     0.16200
H316        H  0.30463508  0.36593362  0.18232914     0.23800
H317        H  0.45807173  0.26501352  0.26158824     0.14500
H318        H  0.45168795  0.26585618  0.22325698     0.14500
H319        H  0.34774154  0.49807449  0.27795374     0.14500
H320        H  0.34602514  0.50322057  0.23898298     0.14500
H321        H  0.38702937  0.37294125  0.26697320     0.27800
H322        H  0.37939828  0.37270354  0.23477973     0.27800
C323        C  0.22598963  0.00943836  0.45748449     0.03900
C324        C  0.20037328  0.45553666  0.45670360     0.03900
C325        C  0.20525159  0.43527778  0.43847091    -0.16700
C326        C  0.23424002  0.46399476  0.42271724     0.03900
C327        C  0.25133159  0.01337294  0.42269301     0.03900
C328        C  0.24606090  0.03530783  0.43977063    -0.16700
H329        H  0.26141146  0.07443274  0.43948995     0.05900
H330        H  0.18969990  0.39621734  0.43661172     0.05900
N331        N  0.14070816  0.01265592  0.22058989    -0.35000
N332        N  0.11386693  0.43322038  0.24477606    -0.55600
N333        N  0.16092980  0.01150108  0.27565678    -0.35000
N334        N  0.18366994  0.09105992  0.25287131    -0.55600
C335        C  0.09172224  0.46936949  0.21357138     0.28600
C336        C  0.13482400  0.05043555  0.21862171     0.28600
C337        C  0.15994606  0.47219201  0.28262253     0.28600
C338        C  0.19044139  0.05052712  0.28825045     0.28600
C339        C  0.09149968  0.40467995  0.22850778     0.37200
C340        C  0.10041347  0.40334001  0.25993538     0.37200
C341        C  0.20217827  0.11949210  0.23712893     0.37200
C342        C  0.20758488  0.11976924  0.26869171     0.37200
C343        C  0.05382776  0.47989976  0.20922327    -0.20300
C344        C  0.08387143  0.03373616  0.21195468    -0.20300
C345        C  0.19113303  0.48801120  0.29922222    -0.20300
C346        C  0.20644799  0.03540507  0.30353795    -0.20300
C347        C  0.06442798  0.35546455  0.23327753    -0.21300
C348        C  0.06900843  0.35452025  0.25329885    -0.21300
C349        C  0.24070313  0.16784671  0.24282144    -0.21300
C350        C  0.24196921  0.16849701  0.26301503    -0.21300
C351        C  0.08648647  0.42383117  0.21103265    -0.16700
C352        C  0.17898632  0.09927522  0.21875161    -0.16700
C353        C  0.20231508  0.09938374  0.28709200    -0.16700
C354        C  0.11867976  0.42170864  0.27913851    -0.16700
H355        H  0.01315949  0.45434102  0.20407192     0.16200
H356        H  0.06847642  0.05592232  0.20833970     0.16200
H357        H  0.19478035  0.46536240  0.30934471     0.16200
H358        H  0.22489989  0.05574952  0.31673796     0.16200
H359        H  0.04130034  0.32383946  0.22357486     0.14500
H360        H  0.05136872  0.32166663  0.26174743     0.14500
H361        H  0.26504275  0.19964126  0.23390598     0.14500
H362        H  0.26704149  0.20132103  0.27188785     0.14500
H363        H  0.17658591  0.01551830  0.22382248     0.27800
H364        H  0.13610282  0.00929500  0.26470821     0.27800
C365        C  0.27380932  0.03568306  0.04996618     0.03900
C366        C  0.23850311  0.48158596  0.05113496     0.03900
C367        C  0.23091792  0.46024629  0.06979640    -0.16700
C368        C  0.25999034  0.48829538  0.08629234     0.03900
C369        C  0.29447865  0.03976963  0.08453809     0.03900
C370        C  0.30027325  0.06254076  0.06711797    -0.16700
H371        H  0.32892642  0.10225397  0.06679986     0.05900
H372        H  0.20246094  0.42086442  0.07161387     0.05900
C373        C  0.24486104  0.24958260  0.46276127     0.03900
C374        C  0.28350617  0.23569723  0.46104381     0.03900
C375        C  0.29742234  0.22740895  0.44204916    -0.16700
C376        C  0.26831486  0.22445254  0.42569725     0.03900
C377        C  0.22485875  0.23045390  0.42816981     0.03900
C378        C  0.21467734  0.24410267  0.44631290    -0.16700
H379        H  0.18431309  0.25292107  0.44728289     0.05900
H380        H  0.32625421  0.21686206  0.44018891     0.05900
C381        C  0.25902827  0.23997863  0.05016944     0.03900
C382        C  0.23200357  0.26648855  0.05096451     0.03900
C383        C  0.21544065  0.27464876  0.06950218    -0.16700
C384        C  0.21735211  0.25225900  0.08605708     0.03900
C385        C  0.23448209  0.21984879  0.08442820     0.03900
C386        C  0.25633148  0.21531008  0.06711952    -0.16700
H387        H  0.27280864  0.19270189  0.06748020     0.05900
H388        H  0.19789137  0.29639241  0.07112618     0.05900
C389        C  0.03149070  0.25907795  0.44834225     0.03900
C390        C  0.47226489  0.22448495  0.44827186     0.03900
C391        C  0.44534608  0.21700578  0.43039211    -0.16700
C392        C  0.47263338  0.24251088  0.41362888     0.03900
C393        C  0.02889535  0.27632547  0.41395995     0.03900
C394        C  0.05743423  0.28293531  0.43078449    -0.16700
H395        H  0.10072737  0.31010119  0.43041346     0.05900
H396        H  0.40203860  0.19100756  0.42923174     0.05900
C397        C  0.03312400  0.24028418  0.04201468     0.03900
C398        C  0.47322380  0.20889301  0.04239504     0.03900
C399        C  0.44799399  0.20372717  0.06096818    -0.16700
C400        C  0.47623940  0.22972439  0.07783467     0.03900
C401        C  0.03277506  0.26094791  0.07715421     0.03900
C402        C  0.05989465  0.26396635  0.05983199    -0.16700
H403        H  0.10372582  0.28781497  0.06020674     0.05900
H404        H  0.40434606  0.18113176  0.06227843     0.05900
C405        C  0.09034874  0.30983083  0.36358093     0.14300
C406        C  0.07636269  0.34324343  0.35783914     0.01200
C407        C  0.05519197  0.35973224  0.37296553     0.16200
C408        C  0.04731670  0.34296561  0.39195832     0.25600
C409        C  0.05678421  0.30693668  0.39663993    -0.40700
C410        C  0.08021292  0.29194750  0.38257392     0.32700
C411        C  0.08218112  0.35959238  0.33667681     0.01300
F412        F  0.03688279  0.38879836  0.36977334    -0.13000
F413        F  0.08859999  0.25626318  0.38681648    -0.13500
C414        C  0.08325932  0.33174952  0.32022113     0.16200
C415        C  0.09437458  0.35025050  0.30125907     0.25600
C416        C  0.09381155  0.39200231  0.29729759    -0.40600
C417        C  0.08274137  0.41456646  0.31305670     0.32600
C418        C  0.08559468  0.40355014  0.33224802     0.14300
F419        F  0.07359351  0.28642655  0.32187812    -0.13000
F420        F  0.07911525  0.45384152  0.31003585    -0.13500
F421        F  0.10821482  0.32844821  0.28721251    -0.15800
F422        F  0.09752774  0.43941764  0.34590555    -0.14400
F423        F  0.11505513  0.29443005  0.35129784    -0.14400
F424        F  0.52523708  0.35862192  0.40551072    -0.15800
C425        C  0.10617195  0.35456073  0.16788461     0.14300
C426        C  0.09217542  0.36921621  0.15128405     0.01200
C427        C  0.08005947  0.40529726  0.15458582     0.16200
C428        C  0.07700259  0.42185639  0.17344882     0.25600
C429        C  0.08568260  0.40325496  0.19041834    -0.40700
C430        C  0.10236598  0.37036249  0.18689095     0.32700
C431        C  0.08789449  0.34513638  0.13122473     0.01300
F432        F  0.06698761  0.42321711  0.13983101    -0.13000
F433        F  0.12281008  0.35856616  0.20141475    -0.13500
C434        C  0.07285110  0.29527732  0.12950321     0.16200
C435        C  0.06496973  0.27148408  0.11129801     0.25600
C436        C  0.06322965  0.29304223  0.09443923    -0.40600
C437        C  0.08034748  0.34283762  0.09548557     0.32600
C438        C  0.09497189  0.36925289  0.11342534     0.14300
F439        F  0.05925087  0.26669444  0.14525900    -0.13000
F440        F  0.08025977  0.36530940  0.07924714    -0.13500
F441        F  0.05146815  0.22427686  0.11039349    -0.15800
F442        F  0.11503776  0.41805843  0.11290229    -0.14400
F443        F  0.12884305  0.32834918  0.16574479    -0.14400
F444        F  0.06524033  0.45660424  0.17427161    -0.15800
C445        C  0.27553930  0.18581252  0.33064165     0.14300
C446        C  0.23808078  0.16120087  0.34570497     0.01200
C447        C  0.18679932  0.11963747  0.34058635     0.16200
C448        C  0.17342981  0.10474357  0.32106023     0.25600
C449        C  0.21239073  0.12769905  0.30610287    -0.40700
C450        C  0.26335134  0.16908615  0.31119899     0.32700
C451        C  0.25460124  0.17832468  0.36645699     0.01300
F452        F  0.15020448  0.09107488  0.35428937    -0.13000
F453        F  0.30349069  0.19008230  0.29788961    -0.13500
C454        C  0.28162151  0.22902569  0.37172821     0.16200
C455        C  0.29442290  0.24521666  0.39113990     0.25600
C456        C  0.27900737  0.21115224  0.40591951    -0.40600
C457        C  0.25682142  0.16124795  0.40068144     0.32600
C458        C  0.24437956  0.14496729  0.38115034     0.14300
F459        F  0.29252030  0.26298508  0.35832565    -0.13000
F460        F  0.24149433  0.12747487  0.41469681    -0.13500
F461        F  0.31639044  0.29378941  0.39582620    -0.15800
F462        F  0.21963191  0.09616423  0.37682265    -0.14400
F463        F  0.32660539  0.22229094  0.33521021    -0.14400
F464        F  0.12359447  0.06420514  0.31690135    -0.15800
C465        C  0.23299164  0.18498750  0.17549229     0.14300
C466        C  0.22572674  0.15161749  0.16029667     0.01200
C467        C  0.21007686  0.10390798  0.16474218     0.16200
C468        C  0.20070440  0.08932072  0.18393175     0.25600
C469        C  0.20229293  0.12082888  0.19927805    -0.40700
C470        C  0.21925486  0.16929323  0.19470738     0.32700
C471        C  0.23062212  0.16511323  0.13972967     0.01300
F472        F  0.20343075  0.07093353  0.15038844    -0.13000
F473        F  0.21763060  0.20007460  0.20815689    -0.13500
C474        C  0.27810284  0.20731247  0.13283343     0.16200
C475        C  0.28090237  0.22181704  0.11379935     0.25600
C476        C  0.23614369  0.19542667  0.10170318    -0.40600
C477        C  0.18982969  0.15148296  0.10797745     0.32600
C478        C  0.18682468  0.13650620  0.12699059     0.14300
F479        F  0.32041264  0.23579219  0.14483630    -0.13000
F480        F  0.14635452  0.12523331  0.09616640    -0.13500
F481        F  0.32502974  0.26439734  0.10751270    -0.15800
F482        F  0.13984726  0.09614236  0.13336309    -0.14400
F483        F  0.24858612  0.23155723  0.17144479    -0.14400
F484        F  0.18852319  0.04325475  0.18714575    -0.15800
C485        C  0.42283961  0.23911074  0.32065442     0.14300
C486        C  0.43855033  0.27448413  0.33603645     0.01200
C487        C  0.45152721  0.32181482  0.33136384     0.16200
C488        C  0.44623939  0.33203651  0.31234661     0.25600
C489        C  0.42443155  0.29457779  0.29767987    -0.40700
C490        C  0.41706355  0.24920956  0.30161572     0.32700
C491        C  0.43804419  0.25981643  0.35661748     0.01300
F492        F  0.46643435  0.35794061  0.34511060    -0.13000
F493        F  0.39780794  0.21244213  0.28777596    -0.13500
C494        C  0.45810884  0.23050212  0.36039003     0.16200
C495        C  0.45771617  0.21534149  0.37910180     0.25600
C496        C  0.44371692  0.23430599  0.39509496    -0.40600
C497        C  0.42129261  0.26182386  0.39169026     0.32600
C498        C  0.41798004  0.27412300  0.37259679     0.14300
F499        F  0.48626126  0.22314708  0.34652783    -0.13000
F500        F  0.40929069  0.28213170  0.40697357    -0.13500
F501        F  0.48217368  0.19099832  0.38203536    -0.15800
F502        F  0.39885114  0.30298294  0.37005289    -0.14400
F503        F  0.40394406  0.19199896  0.32473641    -0.14400
F504        F  0.45687853  0.37747719  0.30865840    -0.15800
C505        C  0.40025778  0.23096969  0.17039128     0.14300
C506        C  0.42756574  0.26659987  0.15583738     0.01200
C507        C  0.44777822  0.31622865  0.16134441     0.16200
C508        C  0.44015824  0.32911778  0.18016502     0.25600
C509        C  0.40972539  0.29265638  0.19388482    -0.40700
C510        C  0.39029998  0.24353991  0.18892329     0.32700
C511        C  0.43187009  0.25182286  0.13502958     0.01300
F512        F  0.47293132  0.35273100  0.14845742    -0.13000
F513        F  0.35862104  0.20717896  0.20160707    -0.13500
C514        C  0.42741547  0.27554062  0.11898872     0.16200
C515        C  0.43611160  0.26454197  0.09986950     0.25600
C516        C  0.44686548  0.22802921  0.09607376    -0.40600
C517        C  0.44403007  0.19977206  0.11149697     0.32600
C518        C  0.44053691  0.21366708  0.13079277     0.14300
F519        F  0.41601723  0.31051369  0.12153492    -0.13000
F520        F  0.95240115  0.16304126  0.10799584    -0.13500
F521        F  0.43720103  0.29167108  0.08510073    -0.15800
F522        F  0.45196317  0.19342128  0.14513841    -0.14400
F523        F  0.37982118  0.18303488  0.16668142    -0.14400
F524        F  0.45788599  0.37695171  0.18444404    -0.15800
C525        C  0.23315495  0.40781305  0.37372074     0.14300
C526        C  0.28848836  0.43401835  0.36899351     0.01200
C527        C  0.32549001  0.46067470  0.38432319     0.16200
C528        C  0.30683842  0.46428850  0.40294629     0.25600
C529        C  0.25159604  0.44390353  0.40637951    -0.40700
C530        C  0.21493700  0.41352660  0.39198434     0.32700
C531        C  0.30549982  0.43464624  0.34799590     0.01300
F532        F  0.37964120  0.48672201  0.38125941    -0.13000
F533        F  0.16185766  0.39406902  0.39499639    -0.13500
C534        C  0.27607778  0.43716455  0.33263838     0.16200
C535        C  0.28758671  0.43223225  0.31306869     0.25600
C536        C  0.33157490  0.42890483  0.30813124    -0.40600
C537        C  0.36566447  0.43366805  0.32323320     0.32600
C538        C  0.35101595  0.43330501  0.34283425     0.14300
F539        F  0.23608467  0.44476724  0.33642750    -0.13000
F540        F  0.40991335  0.43247270  0.31893547    -0.13500
F541        F  0.25388799  0.42795812  0.29905278    -0.15800
F542        F  0.37970122  0.42847465  0.35651949    -0.14400
F543        F  0.19657570  0.37836878  0.36012858    -0.14400
F544        F  0.34314071  0.49178853  0.41717262    -0.15800
C545        C  0.25946768  0.44639013  0.18269603     0.14300
C546        C  0.29358905  0.45790482  0.16611026     0.01200
C547        C  0.34648964  0.46999608  0.16965787     0.16200
C548        C  0.36167013  0.46483410  0.18810120     0.25600
C549        C  0.32413523  0.44549053  0.20356057    -0.40700
C550        C  0.27437862  0.44006343  0.20107979     0.32700
C551        C  0.27462684  0.45617946  0.14540259     0.01300
F552        F  0.38362213  0.48460681  0.15518374    -0.13000
F553        F  0.23827228  0.42476638  0.21605376    -0.13500
C554        C  0.24159693  0.47361745  0.14097214     0.16200
C555        C  0.23181869  0.47880252  0.12161943     0.25600
C556        C  0.25309731  0.46565124  0.10583830    -0.40600
C557        C  0.28039940  0.44282766  0.10996923     0.32600
C558        C  0.29079454  0.43794591  0.12938616     0.14300
F559        F  0.22103728  0.48908669  0.15505005    -0.13000
F560        F  0.30160835  0.42951710  0.09516259    -0.13500
F561        F  0.20579694  0.50155127  0.11830217    -0.15800
F562        F  0.31787188  0.41610589  0.13236435    -0.14400
F563        F  0.20964864  0.43712351  0.18111087    -0.14400
F564        F  0.41131645  0.47288830  0.19023721    -0.15800
C565        C  0.25574164  0.03214776  0.36927858     0.14300
C566        C  0.31164566  0.05948007  0.36555134     0.01200
C567        C  0.34732829  0.07890922  0.38135536     0.16200
C568        C  0.32754788  0.07034390  0.40056413     0.25600
C569        C  0.27168784  0.04011173  0.40417661    -0.40700
C570        C  0.23600316  0.02247473  0.38838305     0.32700
C571        C  0.33174111  0.06696856  0.34510460     0.01300
F572        F  0.40120998  0.10342079  0.37816417    -0.13000
F573        F  0.18185340  0.99226317  0.39145878    -0.13500
C574        C  0.31659760  0.08951159  0.33230749     0.16200
C575        C  0.33236781  0.09478340  0.31266436     0.25600
C576        C  0.36615014  0.07992763  0.30574715    -0.40600
C577        C  0.37955680  0.05515081  0.31838312     0.32600
C578        C  0.36485643  0.05118588  0.33809208     0.14300
F579        F  0.29062925  0.11045293  0.33946391    -0.13000
F580        F  0.41494958  0.04299493  0.31240398    -0.13500
F581        F  0.32090832  0.12039526  0.30099868    -0.15800
F582        F  0.38656886  0.03559684  0.35050575    -0.14400
F583        F  0.22003830  0.01280490  0.35437723    -0.14400
F584        F  0.36284993  0.08663293  0.41552064    -0.15800
C585        C  0.38043304  0.06612400  0.12686132     0.14300
C586        C  0.36023841  0.08656384  0.14036160     0.01200
C587        C  0.32952359  0.10369555  0.13269080     0.16200
C588        C  0.31454977  0.09522534  0.11320507     0.25600
C589        C  0.32922917  0.06917526  0.10097917    -0.40700
C590        C  0.36596165  0.05868796  0.10734995     0.32700
C591        C  0.37083143  0.09003680  0.16192709     0.01300
F592        F  0.31219779  0.12772865  0.14374887    -0.13000
F593        F  0.38665285  0.53731781  0.09571182    -0.13500
C594        C  0.42066719  0.10121664  0.16899171     0.16200
C595        C  0.43096888  0.10770300  0.18890858     0.25600
C596        C  0.39618149  0.11166194  0.20216778    -0.40600
C597        C  0.34586894  0.09898262  0.19550421     0.32600
C598        C  0.33217780  0.08497589  0.17593234     0.14300
F599        F  0.46225359  0.11126192  0.15688687    -0.13000
F600        F  0.31167030  0.10413301  0.20730150    -0.13500
F601        F  0.47862905  0.11626405  0.19499397    -0.15800
F602        F  0.28224558  0.07054393  0.17059592    -0.14400
F603        F  0.41416354  0.55305963  0.13304828    -0.14400
F604        F  0.28079627  0.10769059  0.10682400    -0.15800
C605        C  0.14036776  0.16945768  0.38397478     0.14300
C606        C  0.15677054  0.21069879  0.37217131     0.01200
C607        C  0.18368878  0.25787521  0.38186148     0.16200
C608        C  0.20073962  0.26404736  0.40116224     0.25600
C609        C  0.19073062  0.22336711  0.41140347    -0.40700
C610        C  0.15684949  0.17594996  0.40326413     0.32700
C611        C  0.14851646  0.20514322  0.35020486     0.01300
F612        F  0.19300072  0.29845632  0.37304843    -0.13000
F613        F  0.14408603  0.13570396  0.41343511    -0.13500
C614        C  0.10529767  0.16101319  0.34143241     0.16200
C615        C  0.10052193  0.15495406  0.32119081     0.25600
C616        C  0.12855599  0.19661861  0.30942422    -0.40600
C617        C  0.17163381  0.24062978  0.31757373     0.32600
C618        C  0.18415640  0.24364727  0.33736108     0.14300
F619        F  0.06251638  0.12634308  0.35196491    -0.13000
F620        F  0.19747174  0.28208093  0.30692784    -0.13500
F621        F  0.05866973  0.11145437  0.31360667    -0.15800
F622        F  0.22970088  0.28550464  0.34381514    -0.14400
F623        F  0.11131158  0.12226300  0.37713185    -0.14400
F624        F  0.23091454  0.31032139  0.40930049    -0.15800
C625        C  0.13803942  0.20496224  0.17517826     0.14300
C626        C  0.16863928  0.25247696  0.16720637     0.01200
C627        C  0.18914221  0.29410574  0.17998997     0.16200
C628        C  0.17631659  0.28829029  0.19988380     0.25600
C629        C  0.14170972  0.24101820  0.20721794    -0.40700
C630        C  0.12424558  0.19942319  0.19489768     0.32700
C631        C  0.17912800  0.25811267  0.14575635     0.01300
F632        F  0.21726457  0.34044288  0.17298779    -0.13000
F633        F  0.09109241  0.15319879  0.20185136    -0.13500
C634        C  0.13784651  0.22639750  0.13246656     0.16200
C635        C  0.14935249  0.22699902  0.11256548     0.25600
C636        C  0.20100391  0.26159139  0.10536579    -0.40600
C637        C  0.24108566  0.29604305  0.11824140     0.32600
C638        C  0.23094948  0.29322080  0.13828869     0.14300
F639        F  0.08661433  0.19347663  0.13874716    -0.13000
F640        F  0.29199542  0.32847611  0.11155894    -0.13500
F641        F  0.11136098  0.19117807  0.10045446    -0.15800
F642        F  0.27332109  0.32164953  0.15030839    -0.14400
F643        F  0.12196156  0.16365391  0.16399832    -0.14400
F644        F  0.19300682  0.32861308  0.21167614    -0.15800
C645        C  0.39091739  0.34393390  0.87006145     0.14300
C646        C  0.37673866  0.30219241  0.85801117     0.01200
C647        C  0.35613233  0.25682347  0.86691371     0.16200
C648        C  0.33857336  0.25045558  0.88607851     0.25600
C649        C  0.34217712  0.28972294  0.89651694    -0.40700
C650        C  0.37330890  0.33748774  0.88932109     0.32700
C651        C  0.37566178  0.30313872  0.83646907     0.01300
F652        F  0.34965309  0.21770697  0.85660828    -0.13000
F653        F  0.38120454  0.37681642  0.90022707    -0.13500
C654        C  0.41670862  0.34382291  0.82611727     0.16200
C655        C  0.41495548  0.34313499  0.80595216     0.25600
C656        C  0.37757840  0.29908446  0.79588203    -0.40600
C657        C  0.33417619  0.26029726  0.80568931     0.32600
C658        C  0.33262367  0.26239777  0.82583050     0.14300
F659        F  0.46207330  0.38121673  0.83496092    -0.13000
F660        F  0.29742299  0.21774513  0.79597896    -0.13500
F661        F  0.45592888  0.38177438  0.79610414    -0.15800
F662        F  0.29111780  0.22201771  0.83461258    -0.14400
F663        F  0.41767654  0.39024816  0.86329025    -0.14400
F664        F  0.31227131  0.20490753  0.89371121    -0.15800
C665        C  0.10863915  0.40554918  0.82733966     0.14300
C666        C  0.14850075  0.39850699  0.83352893     0.01200
C667        C  0.17271476  0.38348855  0.81963886     0.16200
C668        C  0.15642370  0.37428697  0.80003220     0.25600
C669        C  0.11659362  0.38154159  0.79397260    -0.40700
C670        C  0.09465642  0.39926704  0.80777412     0.32700
C671        C  0.16674994  0.41030312  0.85420340     0.01300
F672        F  0.20961479  0.37487113  0.82551523    -0.13000
F673        F  0.05650289  0.40722053  0.80240663    -0.13500
C674        C  0.12903508  0.38930244  0.86956331     0.16200
C675        C  0.14394849  0.40780461  0.88873490     0.25600
C676        C  0.19671900  0.44776130  0.89277149    -0.40600
C677        C  0.23538881  0.46637952  0.87774243     0.32600
C678        C  0.22067233  0.44755320  0.85869504     0.14300
F679        F  0.07716766  0.35241799  0.86576743    -0.13000
F680        F  0.28271697  0.00348297  0.88125447    -0.13500
F681        F  0.10583122  0.39002539  0.90308810    -0.15800
F682        F  0.25837670  0.46889753  0.84445697    -0.14400
F683        F  0.08341544  0.41915591  0.84022561    -0.14400
F684        F  0.17664588  0.35530194  0.78730454    -0.15800
C685        C  0.18836580  0.39253633  0.62015203     0.14300
C686        C  0.15577927  0.40952221  0.62707668     0.01200
C687        C  0.14039852  0.43045131  0.61306301     0.16200
C688        C  0.16371139  0.44086581  0.59453370     0.25600
C689        C  0.20636632  0.43529852  0.59018275    -0.40700
C690        C  0.21510216  0.40681661  0.60220048     0.32700
C691        C  0.14058492  0.40689392  0.64849862     0.01300
F692        F  0.10668952  0.44526393  0.61710536    -0.13000
F693        F  0.25244385  0.39629450  0.59730323    -0.13500
C694        C  0.17373400  0.40763683  0.66323990     0.16200
C695        C  0.15610950  0.39846480  0.68277911     0.25600
C696        C  0.10861706  0.39513745  0.68862057    -0.40600
C697        C  0.08072392  0.40302343  0.67450815     0.32600
C698        C  0.09251855  0.40256963  0.65474010     0.14300
F699        F  0.22175764  0.41393091  0.65869299    -0.13000
F700        F  0.03442112  0.40015976  0.67946401    -0.13500
F701        F  0.18284863  0.38852117  0.69548040    -0.15800
F702        F  0.05281617  0.39138683  0.64212695    -0.14400
F703        F  0.19392446  0.36153149  0.63057197    -0.14400
F704        F  0.15085060  0.96363978  0.58193570    -0.15800
C705        C  0.28576332  0.21528705  0.67094286     0.14300
C706        C  0.31384646  0.24705763  0.65534015     0.01200
C707        C  0.35463529  0.29694288  0.65982665     0.16200
C708        C  0.37075304  0.31284362  0.67894694     0.25600
C709        C  0.34933850  0.27857746  0.69382601    -0.40700
C710        C  0.30324670  0.23125064  0.69011515     0.32700
C711        C  0.30197109  0.22959245  0.63453255     0.01300
F712        F  0.38078367  0.33041250  0.64571413    -0.13000
F713        F  0.27834332  0.19919057  0.70478427    -0.13500
C714        C  0.24865912  0.20063848  0.62750607     0.16200
C715        C  0.23910041  0.19555089  0.60753719     0.25600
C716        C  0.28234620  0.22091234  0.59440684    -0.40600
C717        C  0.33518945  0.24288216  0.60097311     0.32600
C718        C  0.34485861  0.24653472  0.62092922     0.14300
F719        F  0.20543610  0.18160686  0.63963390    -0.13000
F720        F  0.37756801  0.26604864  0.58834769    -0.13500
F721        F  0.18743776  0.17198363  0.60118800    -0.15800
F722        F  0.39662638  0.27083591  0.62702002    -0.14400
F723        F  0.24499215  0.16759381  0.66767399    -0.14400
F724        F  0.41291762  0.36009974  0.68256900    -0.15800
C725        C  0.08769809  0.19550431  0.83774270     0.14300
C726        C  0.04253388  0.17087585  0.85035342     0.01200
C727        C  0.99381014  0.13071656  0.84239890     0.16200
C728        C  0.99034920  0.11729183  0.82250720     0.25600
C729        C  0.03524950  0.14331905  0.80990206    -0.40700
C730        C  0.08406793  0.18198582  0.81789200     0.32700
C731        C  0.04546351  0.18927688  0.87116783     0.01300
F732        F  0.94845358  0.10570928  0.85352338    -0.13000
F733        F  0.12911749  0.20486582  0.80654253    -0.13500
C734        C  0.07149306  0.24044711  0.87558200     0.16200
C735        C  0.06947819  0.25743100  0.89444485     0.25600
C736        C  0.03787927  0.22443665  0.90906420    -0.40600
C737        C  0.01598495  0.17378837  0.90544009     0.32600
C738        C  0.02056951  0.15643564  0.88677725     0.14300
F739        F  0.09536252  0.27429470  0.86141129    -0.13000
F740        F  0.98755394  0.14088378  0.91962177    -0.13500
F741        F  0.09475878  0.30649336  0.89813179    -0.15800
F742        F  0.99946131  0.10738087  0.88391888    -0.14400
F743        F  0.13614736  0.23192775  0.84480685    -0.14400
F744        F  0.94283684  0.07841095  0.81551151    -0.15800
C745        C  0.17971819  0.03260146  0.82680509     0.14300
C746        C  0.17504991  0.06562142  0.83928945     0.01200
C747        C  0.17119335  0.10217396  0.83088321     0.16200
C748        C  0.16612227  0.10191999  0.81061364     0.25600
C749        C  0.16124618  0.06315411  0.79842824    -0.40700
C750        C  0.17175654  0.03053765  0.80661175     0.32700
C751        C  0.17729811  0.06253851  0.86085715     0.01300
F752        F  0.16974548  0.13660703  0.84231084    -0.13000
F753        F  0.17296617  0.99609813  0.79517960    -0.13500
C754        C  0.22357715  0.09764418  0.87118884     0.16200
C755        C  0.23620565  0.08522911  0.88868822     0.25600
C756        C  0.19838767  0.04030394  0.89749420    -0.40600
C757        C  0.14611335  0.01149405  0.88946177     0.32600
C758        C  0.13640299  0.02123221  0.87085700     0.14300
F759        F  0.25701268  0.14293349  0.86379097    -0.13000
F760        F  0.10512407  0.97306534  0.89933535    -0.13500
F761        F  0.28627221  0.11508820  0.89626237    -0.15800
F762        F  0.08705891  0.99094086  0.86273352    -0.14400
F763        F  0.19423956  0.00374689  0.83422614    -0.14400
F764        F  0.16029357  0.13672229  0.80304529    -0.15800
C765        C  0.23237048  0.07338804  0.66978561     0.14300
C766        C  0.19910116  0.04732645  0.65391019     0.01200
C767        C  0.14294962  0.02072817  0.65715877     0.16200
C768        C  0.12173701  0.01761804  0.67605189     0.25600
C769        C  0.15544756  0.04739265  0.69162943    -0.40700
C770        C  0.21135948  0.07537701  0.68808944     0.32700
C771        C  0.22453029  0.04676569  0.63466385     0.01300
F772        F  0.10822690  0.99889744  0.64218361    -0.13000
F773        F  0.24578157  0.10705918  0.70193448    -0.13500
C774        C  0.26032399  0.03095046  0.63374739     0.16200
C775        C  0.28312698  0.02810817  0.61598953     0.25600
C776        C  0.27119971  0.04113857  0.59851070    -0.40600
C777        C  0.23904715  0.06091415  0.59954163     0.32600
C778        C  0.21551761  0.06326257  0.61740989     0.14300
F779        F  0.27060803  0.01506129  0.64995850    -0.13000
F780        F  0.22616007  0.07339513  0.58295858    -0.13500
F781        F  0.31247470  0.00751318  0.61550433    -0.15800
F782        F  0.18282518  0.08037951  0.61772982    -0.14400
F783        F  0.28595939  0.09965492  0.66699215    -0.14400
F784        F  0.06748038  0.98806976  0.67882616    -0.15800
C785        C  0.12979426  0.21889945  0.67417781     0.14300
C786        C  0.08941897  0.22391531  0.66700275     0.01200
C787        C  0.05379407  0.22516935  0.68060660     0.16200
C788        C  0.05357599  0.21491920  0.70033815     0.25600
C789        C  0.09028364  0.20428794  0.70687984    -0.40700
C790        C  0.13289070  0.21323197  0.69411710     0.32700
C791        C  0.08359055  0.22702991  0.64549124     0.01300
F792        F  0.01465672  0.22993849  0.67422418    -0.13000
F793        F  0.17129414  0.20625445  0.70022387    -0.13500
C794        C  0.07406957  0.18884005  0.63212978     0.16200
C795        C  0.06478436  0.19107196  0.61226158     0.25600
C796        C  0.06671020  0.23232351  0.60514986    -0.40600
C797        C  0.07900899  0.27129339  0.61835998     0.32600
C798        C  0.08592949  0.26806478  0.63826550     0.14300
F799        F  0.07050880  0.14801236  0.63849493    -0.13000
F800        F  0.07835804  0.31017342  0.61224151    -0.13500
F801        F  0.05191326  0.15212345  0.60007066    -0.15800
F802        F  0.09331155  0.30450219  0.65075965    -0.14400
F803        F  0.16317168  0.21477776  0.66172230    -0.14400
F804        F  0.01395355  0.20994389  0.71241354    -0.15800
C805        C  0.45414197  0.24602398  0.86827389     0.14300
C806        C  0.42337307  0.19452607  0.86418678     0.01200
C807        C  0.40321635  0.16209076  0.87990313     0.16200
C808        C  0.41428366  0.18064340  0.89908052     0.25600
C809        C  0.44753045  0.23175774  0.90296570    -0.40700
C810        C  0.46540044  0.26435425  0.88754088     0.32700
C811        C  0.40923166  0.17501536  0.84369465     0.01300
F812        F  0.37530335  0.11231788  0.87679074    -0.13000
F813        F  0.49565166  0.31392563  0.89120137    -0.13500
C814        C  0.44897600  0.19216977  0.82898398     0.16200
C815        C  0.43571390  0.16958268  0.81036293     0.25600
C816        C  0.38207853  0.13237040  0.80572976    -0.40600
C817        C  0.34173210  0.12257675  0.81929890     0.32600
C818        C  0.35543521  0.13919601  0.83852319     0.14300
F819        F  0.50144590  0.22695303  0.83310173    -0.13000
F820        F  0.28910191  0.09159449  0.81446208    -0.13500
F821        F  0.47575709  0.18210568  0.79727797    -0.15800
F822        F  0.31639531  0.11754797  0.85216999    -0.14400
F823        F  0.47123537  0.27856789  0.85365433    -0.14400
F824        F  0.39629951  0.14857768  0.91390978    -0.15800
C825        C  0.34319202  0.39852850  0.83101837     0.14300
C826        C  0.29202507  0.35401401  0.83315306     0.01200
C827        C  0.26253368  0.33002489  0.81591359     0.16200
C828        C  0.28091869  0.35250237  0.79775372     0.25600
C829        C  0.32883999  0.39955930  0.79640794    -0.40700
C830        C  0.36199043  0.41983058  0.81284061     0.32700
C831        C  0.27031262  0.33387685  0.85320493     0.01300
F832        F  0.21190480  0.28908728  0.81685812    -0.13000
F833        F  0.40900677  0.46483274  0.81189573    -0.13500
C834        C  0.27750896  0.36557794  0.86933368     0.16200
C835        C  0.26860593  0.34870344  0.88849868     0.25600
C836        C  0.25174013  0.29971654  0.89192827    -0.40600
C837        C  0.23621039  0.26639245  0.87595813     0.32600
C838        C  0.24553617  0.28324632  0.85688796     0.14300
F839        F  0.29507058  0.41346656  0.86667930    -0.13000
F840        F  0.21598946  0.21793942  0.87886005    -0.13500
F841        F  0.28112722  0.38129588  0.90368554    -0.15800
F842        F  0.23196982  0.24977130  0.84213747    -0.14400
F843        F  0.37384628  0.42425770  0.84666622    -0.14400
F844        F  0.24880826  0.33085353  0.78195003    -0.15800
C845        C  0.43649747  0.12718351  0.67233074     0.14300
C846        C  0.41507344  0.15073108  0.66326607     0.01200
C847        C  0.38786202  0.16759854  0.67463000     0.16200
C848        C  0.37836714  0.15767000  0.69440941     0.25600
C849        C  0.39418718  0.12914752  0.70270582    -0.40700
C850        C  0.42647952  0.11691564  0.69197518     0.32700
C851        C  0.42384008  0.16041885  0.64228431     0.01300
F852        F  0.36400287  0.18752459  0.66593878    -0.13000
F853        F  0.44424816  0.09118250  0.70029013    -0.13500
C854        C  0.41655046  0.12348676  0.62871371     0.16200
C855        C  0.43182561  0.13529438  0.60929163     0.25600
C856        C  0.45234802  0.18344053  0.60339777    -0.40600
C857        C  0.45338872  0.21818582  0.61626423     0.32600
C858        C  0.44227098  0.20778720  0.63573338     0.14300
F859        F  0.39782727  0.07710255  0.63448824    -0.13000
F860        F  0.97281385  0.26469434  0.61035740    -0.13500
F861        F  0.43020545  0.10121529  0.59665137    -0.15800
F862        F  0.45547852  0.24585593  0.64826326    -0.14400
F863        F  0.46776232  0.11487014  0.66230815    -0.14400
F864        F  0.34920055  0.17137094  0.70496337    -0.15800
C865        C  0.28471976  0.34207192  0.67074542     0.14300
C866        C  0.30851952  0.37120166  0.65405561     0.01200
C867        C  0.34430112  0.42273270  0.65716071     0.16200
C868        C  0.35569414  0.44384695  0.67606078     0.25600
C869        C  0.32804811  0.41496045  0.69243893    -0.40700
C870        C  0.29309998  0.36363699  0.68952408     0.32700
C871        C  0.29540342  0.34822487  0.63366393     0.01300
F872        F  0.36580473  0.45355227  0.64192867    -0.13000
F873        F  0.26502643  0.33428633  0.70471459    -0.13500
C874        C  0.24206728  0.30991584  0.62863765     0.16200
C875        C  0.22927173  0.28866570  0.60977742     0.25600
C876        C  0.26959309  0.30311408  0.59558691    -0.40600
C877        C  0.32273408  0.34161336  0.60021066     0.32600
C878        C  0.33558472  0.36411724  0.61890392     0.14300
F879        F  0.20145419  0.29385863  0.64182689    -0.13000
F880        F  0.36282529  0.35595421  0.58676853    -0.13500
F881        F  0.17774056  0.25208451  0.60556037    -0.15800
F882        F  0.38822839  0.39901040  0.62277865    -0.14400
F883        F  0.25409870  0.29220884  0.66912636    -0.14400
F884        F  0.39098173  0.49360238  0.67824059    -0.15800
O885        O  0.30878261  0.55919953  0.97652439    -0.79300
O886        O  0.30894420  0.70643002  0.03705551    -0.64000
O887        O  0.32515524  0.63184466  0.99811085    -1.10600
C888        C  0.43448999  0.75848044  0.97050659     1.07600
O889        O  0.30979000  0.76452515  0.01911412    -0.77200
O890        O  0.31176593  0.76516250  0.97969461    -0.64800
Ni891      Ni  0.36364367  0.60312901  0.99652775     1.34900
C892        C  0.30196675  0.74137250  0.96357853     0.86300
O893        O  0.29484051  0.60982195  0.03544489    -0.77700
O894        O  0.31687429  0.56098323  0.01806919    -0.88000
C895        C  0.29410708  0.73677376  0.03412260     0.85900
O896        O  0.42233565  0.64881750  0.01540236    -0.66200
O897        O  0.42074365  0.78769238  0.97849923    -0.85500
C898        C  0.43034221  0.68514223  0.02664130     0.86800
C899        C  0.29400504  0.56908939  0.03281439     1.08300
H900        H  0.38245487  0.72552383  0.00166988     0.40100
O901        O  0.34549882  0.71417282  0.99979890    -1.08100
O902        O  0.31458459  0.70929165  0.96036844    -0.64800
Ni903      Ni  0.32591358  0.67087702  0.97851189     1.26300
O904        O  0.39470304  0.69598321  0.02817733    -0.65000
O905        O  0.40340351  0.71019032  0.97138398    -0.77300
C906        C  0.29051659  0.57096136  0.96217048     0.86100
O907        O  0.30444745  0.61640773  0.95954609    -0.64500
Ni908      Ni  0.36436389  0.77736457  0.99883692     1.27400
Ni909      Ni  0.32105071  0.66675576  0.01870651     1.26100
H910        H  0.28789611  0.60412263  0.99790458     0.40700
O911        O  0.22633804  0.66743820  0.51633511    -0.79300
O912        O  0.38132010  0.67023193  0.46233809    -0.64000
O913        O  0.27667458  0.62364098  0.50436290    -1.10600
C914        C  0.44534367  0.70684116  0.53548674     1.07600
O915        O  0.45388921  0.69064246  0.48062463    -0.77200
O916        O  0.37197963  0.58278241  0.51732769    -0.64800
Ni917      Ni  0.21362999  0.61415804  0.49785681     1.34900
C918        C  0.33575391  0.57311675  0.53013901     0.86300
O919        O  0.29266587  0.57526568  0.47792801    -0.77700
O920        O  0.20746400  0.56086434  0.47917515    -0.88000
C921        C  0.43389178  0.69371104  0.46481907     0.85900
O922        O  0.23717385  0.66182687  0.47758868    -0.66200
O923        O  0.45541173  0.68562274  0.52124909    -0.85500
C924        C  0.28259074  0.70230509  0.47481506     0.86800
C925        C  0.24081288  0.54721964  0.47399907     1.08300
H926        H  0.39522937  0.70387534  0.50039053     0.40100
O927        O  0.37111114  0.66848055  0.50172172    -1.08100
O928        O  0.32099445  0.60267397  0.53300586    -0.64800
Ni929      Ni  0.32914246  0.66125312  0.52385979     1.26300
O930        O  0.32615811  0.70730814  0.48067091    -0.65000
O931        O  0.39844226  0.70219866  0.53822353    -0.77300
C932        C  0.27043415  0.70638225  0.52305457     0.86100
O933        O  0.31825294  0.71447708  0.51938209    -0.64500
Ni934      Ni  0.41253105  0.64022802  0.49980498     1.27400
Ni935      Ni  0.32070327  0.64489638  0.48158808     1.26100
H936        H  0.26521942  0.59055195  0.50759250     0.40700
N937        N  0.34216732  0.01616419  0.72299486    -0.35000
N938        N  0.33097270  0.94386585  0.74668234    -0.55600
N939        N  0.35005448  0.01570491  0.77860414    -0.35000
N940        N  0.36247009  0.59007412  0.75363884    -0.55600
C941        C  0.32177317  0.97670103  0.71060416     0.28600
C942        C  0.33063978  0.54928377  0.71569789     0.28600
C943        C  0.32859382  0.97199004  0.78747592     0.28600
C944        C  0.35164597  0.55049419  0.79122556     0.28600
C945        C  0.34104892  0.92721010  0.72983380     0.37200
C946        C  0.34169507  0.92447676  0.76134884     0.37200
C947        C  0.37957076  0.61929232  0.73820783     0.37200
C948        C  0.38516086  0.62002182  0.76929617     0.37200
C949        C  0.29679689  0.98261606  0.69541098    -0.20300
C950        C  0.30003070  0.52875237  0.69910139    -0.20300
C951        C  0.30955171  0.97499219  0.80570810    -0.20300
C952        C  0.32739224  0.52630120  0.80839491    -0.20300
C953        C  0.35817698  0.89644633  0.73377836    -0.21300
C954        C  0.35849558  0.89471780  0.75392693    -0.21300
C955        C  0.41209116  0.66857992  0.74386942    -0.21300
C956        C  0.41483531  0.66902945  0.76383207    -0.21300
C957        C  0.33297847  0.93989441  0.71139934    -0.16700
C958        C  0.36403026  0.60026515  0.71937419    -0.16700
C959        C  0.37538309  0.60194043  0.78817793    -0.16700
C960        C  0.33382284  0.93251983  0.78110393    -0.16700
H961        H  0.28131366  0.95963651  0.68258278     0.16200
H962        H  0.29020581  0.54696092  0.68899889     0.16200
H963        H  0.29195770  0.94701117  0.81656958     0.16200
H964        H  0.32164760  0.54071783  0.82195278     0.16200
H965        H  0.36997439  0.87811874  0.72332508     0.14500
H966        H  0.37140478  0.87552649  0.76225138     0.14500
H967        H  0.43069610  0.70050054  0.73472120     0.14500
H968        H  0.43673476  0.70160390  0.77300888     0.14500
H969        H  0.37175500  0.02612052  0.73333698     0.27800
H970        H  0.37347221  0.02586311  0.76594808     0.27800
N971        N  0.09525286  0.60438874  0.72265999    -0.35000
N972        N  0.12079720  0.54975097  0.74537588    -0.55600
N973        N  0.07376861  0.57836424  0.77625912    -0.35000
N974        N  0.04980954  0.63609879  0.75484041    -0.55600
C975        C  0.09969622  0.57625475  0.70851542     0.28600
C976        C  0.07024082  0.62418968  0.71489000     0.28600
C977        C  0.08146130  0.54465358  0.78329216     0.28600
C978        C  0.04005932  0.58221165  0.78862965     0.28600
C979        C  0.14658282  0.54985905  0.72885511     0.37200
C980        C  0.14800618  0.54931126  0.76073190     0.37200
C981        C  0.06827780  0.67357427  0.74241907     0.37200
C982        C  0.05114178  0.65406141  0.77308642     0.37200
C983        C  0.07641245  0.57864368  0.69161170    -0.20300
C984        C  0.05634289  0.60705051  0.69587805    -0.20300
C985        C  0.04912652  0.52361350  0.79956159    -0.20300
C986        C  0.02320761  0.54753555  0.80304812    -0.20300
C987        C  0.18873604  0.54515983  0.73378639    -0.21300
C988        C  0.19093998  0.54690603  0.75404787    -0.21300
C989        C  0.07916264  0.71582133  0.75262369    -0.21300
C990        C  0.06859056  0.70353948  0.77215604    -0.21300
C991        C  0.13177706  0.55594978  0.71002405    -0.16700
C992        C  0.07576336  0.66807709  0.72223850    -0.16700
C993        C  0.03909840  0.62531222  0.79001919    -0.16700
C994        C  0.13059999  0.54880652  0.78022117    -0.16700
H995        H  0.07728350  0.56618274  0.67695393     0.16200
H996        H  0.03982184  0.61908907  0.68536045     0.16200
H997        H  0.05043234  0.49911789  0.80945202     0.16200
H998        H  0.00054543  0.54371995  0.81616586     0.16200
H999        H  0.21592962  0.54175717  0.72410342     0.14500
H1000       H  0.21959615  0.54501670  0.76269154     0.14500
H1001       H  0.09493019  0.75190510  0.74676720     0.14500
H1002       H  0.07560014  0.72883455  0.78422891     0.14500
H1003       H  0.11784667  0.61815749  0.73534939     0.27800
H1004       H  0.10144514  0.60601979  0.76701216     0.27800
N1005       N  0.48345731  0.81362478  0.76923272    -0.35000
N1006       N  0.06821122  0.85296131  0.74117785    -0.55600
N1007       N  0.47744646  0.82342497  0.71583311    -0.35000
N1008       N  0.39339044  0.78179482  0.74366000    -0.55600
C1009       C  0.02478303  0.81805788  0.77905263     0.28600
C1010       C  0.43861609  0.78682458  0.78022763     0.28600
C1011       C  0.01891812  0.82928753  0.70469596     0.28600
C1012       C  0.43192489  0.79369487  0.70538116     0.28600
C1013       C  0.09858626  0.87473160  0.75717021     0.37200
C1014       C  0.09567461  0.88122072  0.72586080     0.37200
C1015       C  0.36909649  0.78231767  0.76022923     0.37200
C1016       C  0.36362492  0.78088533  0.72919755     0.37200
C1017       C  0.00524727  0.79154825  0.79598993    -0.20300
C1018       C  0.45105098  0.77276931  0.79694508    -0.20300
C1019       C  0.99905381  0.80148057  0.68767270    -0.20300
C1020       C  0.44485969  0.78042892  0.68795764    -0.20300
C1021       C  0.14764862  0.91680002  0.75197583    -0.21300
C1022       C  0.14574896  0.92100131  0.73195665    -0.21300
C1023       C  0.32121566  0.77841770  0.75649447    -0.21300
C1024       C  0.31748550  0.77712775  0.73645305    -0.21300
C1025       C  0.07956290  0.85610217  0.77600478    -0.16700
C1026       C  0.39189431  0.78735835  0.77825349    -0.16700
C1027       C  0.38027355  0.78426193  0.70985206    -0.16700
C1028       C  0.07338451  0.86896330  0.70695258    -0.16700
H1029       H  0.02886135  0.79080716  0.80747788     0.16200
H1030       H  0.42454617  0.75431326  0.80922532     0.16200
H1031       H  0.02224585  0.80333915  0.67497627     0.16200
H1032       H  0.41888860  0.76311326  0.67575865     0.16200
H1033       H  0.18048778  0.94220315  0.76157189     0.14500
H1034       H  0.17693286  0.95023751  0.72309970     0.14500
H1035       H  0.29302461  0.77789089  0.76701224     0.14500
H1036       H  0.28604134  0.77573273  0.72828122     0.14500
H1037       H  0.48735707  0.83696036  0.75843663     0.27800
H1038       H  0.48121521  0.84634118  0.72761848     0.27800
C1039       C  0.48472514  0.72692829  0.55220854     0.03900
C1040       C  0.04415858  0.75717308  0.55245832     0.03900
C1041       C  0.06978855  0.75743198  0.56991177    -0.16700
C1042       C  0.04002669  0.73003678  0.58630151     0.03900
C1043       C  0.48349572  0.70349876  0.58554266     0.03900
C1044       C  0.45721041  0.70287203  0.56922621    -0.16700
H1045       H  0.41332094  0.68115470  0.56985917     0.05900
H1046       H  0.11341947  0.77962891  0.57101594     0.05900
C1047       C  0.28390911  0.97749124  0.54298096     0.03900
C1048       C  0.31286283  0.53204528  0.54512535     0.03900
C1049       C  0.31052701  0.55078723  0.56419621    -0.16700
C1050       C  0.27705616  0.52023199  0.57924166     0.03900
C1051       C  0.24863547  0.96881269  0.57641691     0.03900
C1052       C  0.25507067  0.94867500  0.55926379    -0.16700
H1053       H  0.23239927  0.90846710  0.55812369     0.05900
H1054       H  0.33196580  0.59038761  0.56706839     0.05900
C1055       C  0.28440063  0.75724756  0.94676079     0.03900
C1056       C  0.24565847  0.77119878  0.94618414     0.03900
C1057       C  0.23565183  0.78375972  0.92792953    -0.16700
C1058       C  0.26777093  0.79081785  0.91164274     0.03900
C1059       C  0.31023986  0.78398126  0.91334861     0.03900
C1060       C  0.31522955  0.76407318  0.92995835    -0.16700
H1061       H  0.34599283  0.75611644  0.92993922     0.05900
H1062       H  0.20373709  0.79022274  0.92644479     0.05900
C1063       C  0.26343541  0.73141391  0.54068757     0.03900
C1064       C  0.24337784  0.76345133  0.54206545     0.03900
C1065       C  0.24242833  0.78354674  0.56067346    -0.16700
C1066       C  0.25709182  0.77108452  0.57750611     0.03900
C1067       C  0.26646821  0.73303470  0.57633552     0.03900
C1068       C  0.27120758  0.71487559  0.55817716    -0.16700
H1069       H  0.28140534  0.68740493  0.55772658     0.05900
H1070       H  0.23424498  0.81234954  0.56193542     0.05900
C1071       C  0.22998139  0.97902284  0.94631037     0.03900
C1072       C  0.25298747  0.53189464  0.94696175     0.03900
C1073       C  0.24101046  0.55024867  0.93074251    -0.16700
C1074       C  0.21729705  0.52161021  0.91365617     0.03900
C1075       C  0.20634773  0.97411047  0.91189887     0.03900
C1076       C  0.21254308  0.95318508  0.92815327    -0.16700
H1077       H  0.20034183  0.91488505  0.92678061     0.05900
H1078       H  0.25039566  0.58763326  0.93121081     0.05900
C1079       C  0.03251166  0.78390243  0.95778103     0.03900
C1080       C  0.48070329  0.77858166  0.95566089     0.03900
C1081       C  0.45813125  0.76543067  0.93682362    -0.16700
C1082       C  0.47604503  0.74650718  0.92209887     0.03900
C1083       C  0.01928620  0.74170590  0.92547249     0.03900
C1084       C  0.04652885  0.75999164  0.94309451    -0.16700
H1085       H  0.08225029  0.75904406  0.94431880     0.05900
H1086       H  0.42155149  0.76374894  0.93424898     0.05900
O1087       O  0.06141623  0.79449458  0.52075370    -0.79300
O1088       O  0.19603845  0.77503681  0.48248354    -0.64000
O1089       O  0.14370280  0.81879154  0.49951477    -1.10600
C1090       C  0.27134169  0.94219653  0.52584897     1.07600
O1091       O  0.28835966  0.82263242  0.48393136    -0.77200
O1092       O  0.28368639  0.83277787  0.52269344    -0.64800
Ni1093     Ni  0.10088039  0.84566489  0.50152600     1.34900
C1094       C  0.23991744  0.79148448  0.52613229     0.86300
O1095       O  0.11785690  0.78677901  0.46250946    -0.77700
O1096       O  0.05887451  0.80042439  0.47955433    -0.88000
C1097       C  0.24316341  0.78249622  0.47840823     0.85900
O1098       O  0.14036031  0.90422757  0.48430760    -0.66200
O1099       O  0.30700990  0.93126066  0.52042317    -0.85500
C1100       C  0.17772137  0.91496871  0.47185446     0.86800
C1101       C  0.07034837  0.78068074  0.46505109     1.08300
H1102       H  0.24880917  0.89814486  0.49318532     0.40100
O1103       O  0.23807796  0.86542117  0.49658956    -1.08100
O1104       O  0.19450582  0.78348644  0.52063065    -0.64800
Ni1105     Ni  0.19512229  0.84364072  0.51943204     1.26300
O1106       O  0.19277763  0.88572957  0.46910699    -0.65000
O1107       O  0.21952923  0.91218979  0.52205510    -0.77300
C1108       C  0.08205755  0.79096051  0.53638472     0.86100
O1109       O  0.13473285  0.81633138  0.53900825    -0.64500
Ni1110     Ni  0.30239435  0.87779141  0.50192002     1.27400
Ni1111     Ni  0.18583496  0.82768199  0.47746314     1.26100
H1112       H  0.12053232  0.78329223  0.50074930     0.40700
O1113       O  0.20201026  0.75221210  0.97811002    -0.79300
O1114       O  0.20012452  0.90053330  0.03722833    -0.64000
O1115       O  0.17124662  0.80521743  0.99745532    -1.10600
C1116       C  0.21220080  0.94486631  0.96327692     1.07600
O1117       O  0.19176474  0.95456970  0.01949707    -0.77200
O1118       O  0.08329820  0.85591828  0.98142571    -0.64800
Ni1119     Ni  0.14893386  0.74106151  0.99869022     1.34900
C1120       C  0.08116903  0.82176213  0.97046545     0.86300
O1121       O  0.10696367  0.80735125  0.02404259    -0.77700
O1122       O  0.09210973  0.73067395  0.01876768    -0.88000
C1123       C  0.20865131  0.94414774  0.03468264     0.85900
O1124       O  0.20159755  0.75459706  0.01823561    -0.66200
O1125       O  0.18492606  0.94952693  0.97743774    -0.85500
C1126       C  0.21156133  0.77960612  0.03416459     0.86800
C1127       C  0.07703790  0.75946097  0.02591754     1.08300
H1128       H  0.22239100  0.91546527  0.99920073     0.40100
O1129       O  0.18627362  0.88591971  0.99855213    -1.08100
O1130       O  0.12260940  0.81955225  0.96830070    -0.64800
Ni1131     Ni  0.19468685  0.85230431  0.97837886     1.26300
O1132       O  0.19684730  0.81036676  0.03708448    -0.65000
O1133       O  0.21774163  0.90758755  0.96128501    -0.77300
C1134       C  0.21771944  0.77945365  0.96290529     0.86100
O1135       O  0.20916378  0.81409379  0.96036313    -0.64500
Ni1136     Ni  0.14049952  0.90714761  0.99943129     1.27400
Ni1137     Ni  0.18520943  0.84767595  0.01845271     1.26100
H1138       H  0.13423863  0.79291003  0.99524713     0.40700
N1139       N  0.01278164  0.69316157  0.23133798    -0.35000
N1140       N  0.42179208  0.63437694  0.25638371    -0.55600
N1141       N  0.00323039  0.65650388  0.28416086    -0.35000
N1142       N  0.09435270  0.71685259  0.25907785    -0.55600
C1143       C  0.47060985  0.68529355  0.22100350     0.28600
C1144       C  0.05830029  0.72840189  0.22226280     0.28600
C1145       C  0.45850800  0.64018053  0.29532006     0.28600
C1146       C  0.04576670  0.68343108  0.29623760     0.28600
C1147       C  0.39460392  0.61891688  0.23946024     0.37200
C1148       C  0.38831781  0.60362095  0.27023408     0.37200
C1149       C  0.12577550  0.72998192  0.24302831     0.37200
C1150       C  0.12119864  0.71218252  0.27334599     0.37200
C1151       C  0.48953873  0.71748131  0.20566377    -0.20300
C1152       C  0.04478301  0.74446565  0.20639332    -0.20300
C1153       C  0.47321983  0.65698792  0.31430985    -0.20300
C1154       C  0.02775378  0.68537527  0.31478572    -0.20300
C1155       C  0.34201071  0.57938910  0.24279983    -0.21300
C1156       C  0.33769017  0.57047529  0.26251290    -0.21300
C1157       C  0.17455267  0.73604315  0.24726029    -0.21300
C1158       C  0.17169757  0.72497676  0.26671862    -0.21300
C1159       C  0.41878973  0.64093125  0.22149450    -0.16700
C1160       C  0.10971082  0.73673700  0.22499644    -0.16700
C1161       C  0.09912853  0.69743084  0.29211873    -0.16700
C1162       C  0.40464572  0.60597865  0.28952776    -0.16700
H1163       H  0.46609232  0.71741150  0.19391497     0.16200
H1164       H  0.07162328  0.76905781  0.19527371     0.16200
H1165       H  0.44738908  0.64701556  0.32697471     0.16200
H1166       H  0.05150778  0.70224619  0.32780263     0.16200
H1167       H  0.31036965  0.55774206  0.23232066     0.14500
H1168       H  0.30230819  0.54142881  0.27003572     0.14500
H1169       H  0.20862868  0.74785861  0.23752048     0.14500
H1170       H  0.20290589  0.72648204  0.27505238     0.14500
H1171       H  0.01075907  0.66794369  0.24076769     0.27800
H1172       H  0.00430686  0.64262384  0.27035462     0.27800
N1173       N  0.35898962  0.85008553  0.27749736    -0.35000
N1174       N  0.38490415  0.80536592  0.24716124    -0.55600
N1175       N  0.36215713  0.86118446  0.22170750    -0.35000
N1176       N  0.33263521  0.90356947  0.25285034    -0.55600
C1177       C  0.35866585  0.81331764  0.28619086     0.28600
C1178       C  0.33048438  0.86218875  0.28920170     0.28600
C1179       C  0.36273842  0.82787353  0.20938786     0.28600
C1180       C  0.33849568  0.88000405  0.21210451     0.28600
C1181       C  0.40600931  0.79471334  0.26174798     0.37200
C1182       C  0.40397439  0.79755483  0.23044236     0.37200
C1183       C  0.33839996  0.92783181  0.27003457     0.37200
C1184       C  0.33996411  0.93410339  0.23851712     0.37200
C1185       C  0.32792812  0.80071287  0.30304353    -0.20300
C1186       C  0.31015592  0.83148072  0.30493924    -0.20300
C1187       C  0.33819119  0.82468874  0.19209033    -0.20300
C1188       C  0.32318298  0.85757216  0.19380746    -0.20300
C1189       C  0.43707527  0.77799032  0.25425108    -0.21300
C1190       C  0.43493110  0.77906176  0.23428131    -0.21300
C1191       C  0.34899476  0.97415535  0.26667350    -0.21300
C1192       C  0.35011659  0.97804448  0.24657397    -0.21300
C1193       C  0.39481507  0.79916094  0.28144273    -0.16700
C1194       C  0.33333496  0.90685775  0.28830804    -0.16700
C1195       C  0.33694270  0.92132395  0.21841808    -0.16700
C1196       C  0.39254970  0.80652525  0.21196822    -0.16700
H1197       H  0.32332338  0.77568197  0.31381151     0.16200
H1198       H  0.28985462  0.83481828  0.31755675     0.16200
H1199       H  0.33542248  0.80381860  0.17899272     0.16200
H1200       H  0.30689931  0.86679442  0.18228085     0.23800
H1201       H  0.45831087  0.76567483  0.26212674     0.14500
H1202       H  0.45379885  0.76762120  0.22376761     0.14500
H1203       H  0.35654466  0.00221614  0.27754242     0.14500
H1204       H  0.35991248  0.00981959  0.23855446     0.14500
H1205       H  0.38634051  0.87242737  0.26677199     0.27800
H1206       H  0.38471258  0.87617368  0.23435714     0.27800
C1207       C  0.22437938  0.50940040  0.45739116     0.03900
C1208       C  0.20077892  0.95539677  0.45655398     0.03900
C1209       C  0.20548259  0.93524658  0.43825546    -0.16700
C1210       C  0.23588553  0.96420923  0.42272617     0.03900
C1211       C  0.24761709  0.51248021  0.42236946     0.03900
C1212       C  0.24265889  0.53463212  0.43947318    -0.16700
H1213       H  0.25707506  0.57351798  0.43904926     0.05900
H1214       H  0.18870817  0.89597609  0.43622247     0.05900
N1215       N  0.13703955  0.51038109  0.22025772    -0.35000
N1216       N  0.11488455  0.93450910  0.24508137    -0.55600
N1217       N  0.16186524  0.51098591  0.27483667    -0.35000
N1218       N  0.17979777  0.58947121  0.25231564    -0.55600
C1219       C  0.09498186  0.97201946  0.21398546     0.28600
C1220       C  0.13069043  0.54784736  0.21806788     0.28600
C1221       C  0.15820620  0.97218836  0.28330555     0.28600
C1222       C  0.19050659  0.55014253  0.28743094     0.28600
C1223       C  0.09362581  0.90660737  0.22857671     0.37200
C1224       C  0.10003352  0.90405347  0.26012274     0.37200
C1225       C  0.19782112  0.61755783  0.23650451     0.37200
C1226       C  0.20489561  0.61848035  0.26793988     0.37200
C1227       C  0.05724675  0.98298785  0.20998540    -0.20300
C1228       C  0.07990630  0.53061257  0.21107860    -0.20300
C1229       C  0.18933788  0.98739086  0.29991276    -0.20300
C1230       C  0.20668005  0.53556967  0.30281794    -0.20300
C1231       C  0.06601047  0.85722110  0.23305557    -0.21300
C1232       C  0.06895171  0.85548972  0.25312597    -0.21300
C1233       C  0.23688337  0.66598230  0.24196633    -0.21300
C1234       C  0.23927247  0.66703852  0.26212110    -0.21300
C1235       C  0.08932180  0.92644035  0.21117797    -0.16700
C1236       C  0.17447069  0.59691218  0.21821647    -0.16700
C1237       C  0.20126201  0.59855841  0.28623861    -0.16700
C1238       C  0.11676436  0.92182433  0.27952738    -0.16700
H1239       H  0.01641642  0.95772322  0.20490496     0.16200
H1240       H  0.06425095  0.55243466  0.20721691     0.16200
H1241       H  0.19254142  0.96424471  0.30989457     0.16200
H1242       H  0.22368713  0.55575679  0.31613326     0.16200
H1243       H  0.04320192  0.82604251  0.22313045     0.14500
H1244       H  0.05019636  0.82222562  0.26132928     0.14500
H1245       H  0.26126431  0.69747885  0.23290719     0.14500
H1246       H  0.26544693  0.69982243  0.27086898     0.14500
H1247       H  0.17304198  0.51371732  0.22370241     0.27800
H1248       H  0.13674128  0.50818134  0.26388930     0.27800
C1249       C  0.27525140  0.53530852  0.04995519     0.03900
C1250       C  0.23771216  0.98193614  0.05109910     0.03900
C1251       C  0.22968029  0.96050823  0.06975410    -0.16700
C1252       C  0.25770746  0.98855886  0.08637679     0.03900
C1253       C  0.29739142  0.53931736  0.08432207     0.03900
C1254       C  0.30295052  0.56204074  0.06693859    -0.16700
H1255       H  0.33197927  0.60169601  0.06655129     0.05900
H1256       H  0.20174935  0.92101062  0.07147142     0.05900
C1257       C  0.24555330  0.75143812  0.46217393     0.03900
C1258       C  0.28243610  0.73550582  0.46030386     0.03900
C1259       C  0.29516279  0.72628107  0.44121869    -0.16700
C1260       C  0.26718802  0.72550028  0.42487300     0.03900
C1261       C  0.22570827  0.73418908  0.42753189     0.03900
C1262       C  0.21671295  0.74843609  0.44572443    -0.16700
H1263       H  0.18766316  0.75884158  0.44682498     0.05900
H1264       H  0.32230005  0.71382300  0.43925977     0.05900
C1265       C  0.26039319  0.74081095  0.05026143     0.03900
C1266       C  0.23364894  0.76759686  0.05099560     0.03900
C1267       C  0.21758581  0.77631365  0.06953275    -0.16700
C1268       C  0.21976570  0.75428997  0.08615162     0.03900
C1269       C  0.23655445  0.72162076  0.08456955     0.03900
C1270       C  0.25763078  0.71629432  0.06724444    -0.16700
H1271       H  0.27355858  0.69324338  0.06763591     0.05900
H1272       H  0.20016911  0.79817494  0.07111796     0.05900
C1273       C  0.03097552  0.75825618  0.44815149     0.03900
C1274       C  0.47175028  0.72355124  0.44809401     0.03900
C1275       C  0.44487471  0.71460185  0.43010313    -0.16700
C1276       C  0.47207018  0.73900710  0.41318253     0.03900
C1277       C  0.02814358  0.77374320  0.41353481     0.03900
C1278       C  0.05678886  0.78153376  0.43048490    -0.16700
H1279       H  0.09996369  0.80916742  0.43011679     0.05900
H1280       H  0.40160271  0.68834446  0.42897543     0.05900
C1281       C  0.03428246  0.74181108  0.04204453     0.03900
C1282       C  0.47437940  0.70986549  0.04247380     0.03900
C1283       C  0.44918389  0.70516536  0.06101629    -0.16700
C1284       C  0.47726552  0.73248503  0.07770062     0.03900
C1285       C  0.03371352  0.76423961  0.07699347     0.03900
C1286       C  0.06095447  0.76665595  0.05976942    -0.16700
H1287       H  0.10476331  0.79080610  0.06013765     0.05900
H1288       H  0.40556703  0.68199086  0.06240399     0.05900
C1289       C  0.08854542  0.80941822  0.36307108     0.14300
C1290       C  0.07379197  0.84253821  0.35783079     0.01200
C1291       C  0.05296765  0.85856091  0.37323157     0.16200
C1292       C  0.04511726  0.84075418  0.39204744     0.25600
C1293       C  0.05534950  0.80494376  0.39629440    -0.40700
C1294       C  0.07890938  0.79082295  0.38192297     0.32700
C1295       C  0.07850857  0.85880590  0.33679686     0.01300
F1296       F  0.03548146  0.88848405  0.37046290    -0.13000
F1297       F  0.08718850  0.75483623  0.38565632    -0.13500
C1298       C  0.07721149  0.82999377  0.32030923     0.16200
C1299       C  0.08899985  0.84867245  0.30138430     0.25600
C1300       C  0.09073650  0.89170369  0.29755108    -0.40600
C1301       C  0.08030023  0.91462068  0.31337951     0.32600
C1302       C  0.08311120  0.90333151  0.33253063     0.14300
F1303       F  0.06432126  0.78350622  0.32198916    -0.13000
F1304       F  0.07748708  0.95438095  0.31045926    -0.13500
F1305       F  0.10137729  0.82575471  0.28734960    -0.15800
F1306       F  0.09591778  0.93918667  0.34630200    -0.14400
F1307       F  0.11329299  0.79496863  0.35030549    -0.14400
F1308       F  0.52238030  0.85517108  0.40584453    -0.15800
C1309       C  0.10975453  0.85918878  0.16740522     0.14300
C1310       C  0.09483696  0.87382573  0.15104427     0.01200
C1311       C  0.08285032  0.90989275  0.15467027     0.16200
C1312       C  0.08041395  0.92615771  0.17365576     0.25600
C1313       C  0.08884600  0.90673069  0.19042501    -0.40700
C1314       C  0.10553560  0.87395151  0.18657223     0.32700
C1315       C  0.08926434  0.84940725  0.13096442     0.01300
F1316       F  0.06923899  0.92800944  0.14016014    -0.13000
F1317       F  0.12538790  0.86121950  0.20097657    -0.13500
C1318       C  0.07396069  0.79947811  0.12934465     0.16200
C1319       C  0.06575879  0.77536966  0.11119453     0.25600
C1320       C  0.06392222  0.79668530  0.09426520    -0.40600
C1321       C  0.08053117  0.84637514  0.09524453     0.32600
C1322       C  0.09534872  0.87308517  0.11313342     0.14300
F1323       F  0.06060364  0.77124304  0.14520916    -0.13000
F1324       F  0.07976607  0.86845395  0.07899372    -0.13500
F1325       F  0.05235864  0.72817853  0.11040716    -0.15800
F1326       F  0.11451817  0.92169329  0.11251913    -0.14400
F1327       F  0.13338244  0.83383965  0.16482049    -0.14400
F1328       F  0.06938341  0.96139283  0.17481810    -0.15800
C1329       C  0.27435728  0.68508513  0.32968299     0.14300
C1330       C  0.23643938  0.66091620  0.34467687     0.01200
C1331       C  0.18512301  0.61946948  0.33951692     0.16200
C1332       C  0.17212093  0.60426227  0.32001060     0.25600
C1333       C  0.21130024  0.62702997  0.30514115    -0.40700
C1334       C  0.26238202  0.66816503  0.31024805     0.32700
C1335       C  0.25241427  0.67830564  0.36543458     0.01300
F1336       F  0.14806607  0.59135681  0.35318198    -0.13000
F1337       F  0.30259012  0.68871430  0.29694008    -0.13500
C1338       C  0.27888030  0.72897933  0.37061806     0.16200
C1339       C  0.29158686  0.74542295  0.39003296     0.25600
C1340       C  0.27666690  0.71163568  0.40492079    -0.40600
C1341       C  0.25477285  0.66170577  0.39973135     0.32600
C1342       C  0.24238913  0.64519152  0.38019931     0.14300
F1343       F  0.28992507  0.76270206  0.35706853    -0.13000
F1344       F  0.24010929  0.62812592  0.41376630    -0.13500
F1345       F  0.31378750  0.79409771  0.39458431    -0.15800
F1346       F  0.21821746  0.59640767  0.37589362    -0.14400
F1347       F  0.32542762  0.72140452  0.33433653    -0.14400
F1348       F  0.12243786  0.56356748  0.31579715    -0.15800
C1349       C  0.22966582  0.68332709  0.17530264     0.14300
C1350       C  0.22339842  0.65034047  0.16007178     0.01200
C1351       C  0.20771561  0.60254294  0.16444164     0.16200
C1352       C  0.19756136  0.58759308  0.18357448     0.25600
C1353       C  0.19788816  0.61861091  0.19883881    -0.40700
C1354       C  0.21452348  0.66700561  0.19437026     0.32700
C1355       C  0.22985362  0.66449978  0.13955270     0.01300
F1356       F  0.20211794  0.56993583  0.15010291    -0.13000
F1357       F  0.21164830  0.69718285  0.20779445    -0.13500
C1358       C  0.27742082  0.70756238  0.13323749     0.16200
C1359       C  0.28140510  0.72298863  0.11430721     0.25600
C1360       C  0.23763050  0.69677992  0.10177348    -0.40600
C1361       C  0.19161735  0.65181286  0.10736937     0.32600
C1362       C  0.18747943  0.63576114  0.12626000     0.14300
F1363       F  0.31868772  0.73592814  0.14567111    -0.13000
F1364       F  0.14953902  0.62537708  0.09497235    -0.13500
F1365       F  0.32572599  0.76610634  0.10854477    -0.15800
F1366       F  0.14069377  0.59411583  0.13193572    -0.14400
F1367       F  0.24627338  0.73030001  0.17145935    -0.14400
F1368       F  0.18612941  0.54179098  0.18683751    -0.15800
C1369       C  0.42185759  0.73641423  0.32016710     0.14300
C1370       C  0.43674325  0.77061113  0.33592236     0.01200
C1371       C  0.44860046  0.81789485  0.33188485     0.16200
C1372       C  0.44253512  0.82906807  0.31314665     0.25600
C1373       C  0.42162445  0.79268149  0.29805635    -0.40700
C1374       C  0.41557162  0.74749190  0.30136284     0.32700
C1375       C  0.43606474  0.75489890  0.35630879     0.01300
F1376       F  0.46340003  0.85307165  0.34604808    -0.13000
F1377       F  0.39717784  0.71163592  0.28716471    -0.13500
C1378       C  0.45740193  0.72655812  0.35993809     0.16200
C1379       C  0.45787086  0.71172054  0.37862471     0.25600
C1380       C  0.44286821  0.72973869  0.39465071    -0.40600
C1381       C  0.41824630  0.75534964  0.39132990     0.32600
C1382       C  0.41464599  0.76766620  0.37230667     0.14300
F1383       F  0.48596266  0.72004500  0.34601917    -0.13000
F1384       F  0.40419027  0.77387900  0.40665224    -0.13500
F1385       F  0.48335001  0.68824295  0.38147717    -0.15800
F1386       F  0.39411626  0.79537839  0.36983812    -0.14400
F1387       F  0.40449309  0.68936790  0.32364273    -0.14400
F1388       F  0.45219084  0.87445382  0.31014081    -0.15800
C1389       C  0.39927165  0.73228234  0.16989345     0.14300
C1390       C  0.42800765  0.76844001  0.15565171     0.01200
C1391       C  0.45009760  0.81813920  0.16153145     0.16200
C1392       C  0.44336239  0.83072310  0.18054580     0.25600
C1393       C  0.41199995  0.79389874  0.19405754    -0.40700
C1394       C  0.39035671  0.74461371  0.18863766     0.32700
C1395       C  0.43229665  0.75410713  0.13480640     0.01300
F1396       F  0.47590013  0.85491120  0.14878221    -0.13000
F1397       F  0.35710555  0.70803791  0.20101593    -0.13500
C1398       C  0.42883682  0.77864921  0.11886994     0.16200
C1399       C  0.43769264  0.76785855  0.09973285     0.25600
C1400       C  0.44774216  0.73087525  0.09586173    -0.40600
C1401       C  0.44428538  0.70213504  0.11119795     0.32600
C1402       C  0.44043393  0.71568286  0.13050156     0.14300
F1403       F  0.41843312  0.81426942  0.12156917    -0.13000
F1404       F  0.95270916  0.66544220  0.10763608    -0.13500
F1405       F  0.43984507  0.79570978  0.08504882    -0.15800
F1406       F  0.45113634  0.69496567  0.14486788    -0.14400
F1407       F  0.37592085  0.68418198  0.16553361    -0.14400
F1408       F  0.46274110  0.87873434  0.18524231    -0.15800
C1409       C  0.23218823  0.90824280  0.37337175     0.14300
C1410       C  0.28745961  0.93360565  0.36846032     0.01200
C1411       C  0.32494222  0.95961271  0.38371833     0.16200
C1412       C  0.30707780  0.96339864  0.40245476     0.25600
C1413       C  0.25207278  0.94359612  0.40618227    -0.40700
C1414       C  0.21472218  0.91364197  0.39186707     0.32700
C1415       C  0.30429206  0.93414443  0.34741494     0.01300
F1416       F  0.37900251  0.98512411  0.38048489    -0.13000
F1417       F  0.16167746  0.89412778  0.39522651    -0.13500
C1418       C  0.27527105  0.93722705  0.33205908     0.16200
C1419       C  0.28697725  0.93251702  0.31245763     0.25600
C1420       C  0.33114778  0.92941017  0.30752202    -0.40600
C1421       C  0.36488232  0.93376361  0.32264880     0.32600
C1422       C  0.34966449  0.93254179  0.34222275     0.14300
F1423       F  0.23560600  0.94524550  0.33588369    -0.13000
F1424       F  0.40917551  0.93265260  0.31835431    -0.13500
F1425       F  0.25337456  0.92827674  0.29840492    -0.15800
F1426       F  0.37772314  0.92665555  0.35582753    -0.14400
F1427       F  0.19486615  0.87974762  0.35982984    -0.14400
F1428       F  0.34406062  0.99069712  0.41651821    -0.15800
C1429       C  0.26271427  0.94843788  0.18276943     0.14300
C1430       C  0.29443094  0.95751961  0.16562579     0.01200
C1431       C  0.34728706  0.96858722  0.16842533     0.16200
C1432       C  0.36476871  0.96556551  0.18677723     0.25600
C1433       C  0.32930575  0.94847233  0.20288432    -0.40700
C1434       C  0.27960966  0.94349665  0.20100370     0.32700
C1435       C  0.27343100  0.95503218  0.14515046     0.01300
F1436       F  0.38218702  0.98013108  0.15335452    -0.13000
F1437       F  0.24522393  0.92970559  0.21647986    -0.13500
C1438       C  0.24097347  0.97334058  0.14109384     0.16200
C1439       C  0.23098656  0.97927206  0.12187564     0.25600
C1440       C  0.25093029  0.96554086  0.10584394    -0.40600
C1441       C  0.27666759  0.94106485  0.10959730     0.32600
C1442       C  0.28759832  0.93575631  0.12889030     0.14300
F1443       F  0.22101077  0.98880619  0.15538223    -0.13000
F1444       F  0.29593633  0.92650695  0.09453611    -0.13500
F1445       F  0.20607079  0.00321296  0.11893769    -0.15800
F1446       F  0.31326609  0.91248111  0.13150472    -0.14400
F1447       F  0.21320116  0.94018733  0.18199596    -0.14400
F1448       F  0.41443224  0.97326669  0.18825952    -0.15800
C1449       C  0.25214362  0.53005308  0.36870786     0.14300
C1450       C  0.30817536  0.55803361  0.36512689     0.01200
C1451       C  0.34338779  0.57819436  0.38104700     0.16200
C1452       C  0.32324815  0.56969188  0.40019635     0.25600
C1453       C  0.26743925  0.53880236  0.40371782    -0.40700
C1454       C  0.23200642  0.52032679  0.38780232     0.32700
C1455       C  0.32911762  0.56528569  0.34475181     0.01300
F1456       F  0.39733776  0.60336604  0.37804540    -0.13000
F1457       F  0.17789747  0.48929620  0.39075592    -0.13500
C1458       C  0.31443810  0.58746900  0.33159673     0.16200
C1459       C  0.33118752  0.59260394  0.31203217     0.25600
C1460       C  0.36555657  0.57796471  0.30555044    -0.40600
C1461       C  0.37874826  0.55377494  0.31861029     0.32600
C1462       C  0.36333073  0.55029437  0.33824115     0.14300
F1463       F  0.28838778  0.60865453  0.33839343    -0.13000
F1464       F  0.41479816  0.54199965  0.31315454    -0.13500
F1465       F  0.32018928  0.61807532  0.30007505    -0.15800
F1466       F  0.38548955  0.53606020  0.35107773    -0.14400
F1467       F  0.21679585  0.51004002  0.35370382    -0.14400
F1468       F  0.35834635  0.58657148  0.41523598    -0.15800
C1469       C  0.38270860  0.56826336  0.12719692     0.14300
C1470       C  0.36119790  0.58820113  0.14034528     0.01200
C1471       C  0.32924322  0.60354846  0.13230395     0.16200
C1472       C  0.31497848  0.59439424  0.11276691     0.25600
C1473       C  0.33125250  0.56909749  0.10086374    -0.40700
C1474       C  0.36861777  0.55984497  0.10763151     0.32700
C1475       C  0.37190116  0.59298280  0.16192374     0.01300
F1476       F  0.30962798  0.62609547  0.14304222    -0.13000
F1477       F  0.38267777  0.03563568  0.09508633    -0.13500
C1478       C  0.42233419  0.60588090  0.16902412     0.16200
C1479       C  0.43243195  0.61236029  0.18893260     0.25600
C1480       C  0.39689551  0.61524440  0.20217835    -0.40600
C1481       C  0.34632597  0.60172609  0.19542503     0.32600
C1482       C  0.33278996  0.58722974  0.17586677     0.14300
F1483       F  0.46449793  0.61749678  0.15694459    -0.13000
F1484       F  0.31152027  0.60621935  0.20712541    -0.13500
F1485       F  0.48055537  0.62201304  0.19502210    -0.15800
F1486       F  0.28234009  0.57122848  0.17051816    -0.14400
F1487       F  0.41099928  0.04961163  0.13226414    -0.14400
F1488       F  0.28006485  0.60510423  0.10603365    -0.15800
C1489       C  0.14122071  0.67273305  0.38372121     0.14300
C1490       C  0.15711747  0.71370939  0.37184399     0.01200
C1491       C  0.18328713  0.76095106  0.38147849     0.16200
C1492       C  0.20020322  0.76750550  0.40081450     0.25600
C1493       C  0.19077421  0.72707647  0.41108073    -0.40700
C1494       C  0.15699267  0.67954608  0.40307642     0.32700
C1495       C  0.14906851  0.70768054  0.34987851     0.01300
F1496       F  0.19161143  0.80108562  0.37262654    -0.13000
F1497       F  0.14457482  0.63956344  0.41336391    -0.13500
C1498       C  0.10679117  0.66283977  0.34119751     0.16200
C1499       C  0.10262906  0.65601376  0.32096792     0.25600
C1500       C  0.12971921  0.69736627  0.30900016    -0.40600
C1501       C  0.17156714  0.74224479  0.31709794     0.32600
C1502       C  0.18395365  0.74624882  0.33695450     0.14300
F1503       F  0.06412099  0.62806159  0.35175154    -0.13000
F1504       F  0.19590318  0.78346973  0.30633211    -0.13500
F1505       F  0.06163474  0.61181191  0.31352052    -0.15800
F1506       F  0.22848830  0.78903856  0.34338300    -0.14400
F1507       F  0.11412893  0.62559025  0.37684472    -0.14400
F1508       F  0.22951939  0.81383411  0.40895972    -0.15800
C1509       C  0.13746867  0.70708706  0.17500181     0.14300
C1510       C  0.16936742  0.75461458  0.16711542     0.01200
C1511       C  0.19028019  0.79624894  0.17990933     0.16200
C1512       C  0.17657332  0.79054746  0.19973573     0.25600
C1513       C  0.14123303  0.74330805  0.20701980    -0.40700
C1514       C  0.12329633  0.70164154  0.19468442     0.32700
C1515       C  0.18066133  0.76026262  0.14572110     0.01300
F1516       F  0.21992662  0.84258705  0.17294675    -0.13000
F1517       F  0.08985848  0.65545233  0.20164174    -0.13500
C1518       C  0.13935312  0.72963665  0.13228443     0.16200
C1519       C  0.15125321  0.73015295  0.11242192     0.25600
C1520       C  0.20345020  0.76384468  0.10542096    -0.40600
C1521       C  0.24362322  0.79750216  0.11843729     0.32600
C1522       C  0.23306995  0.79436715  0.13845881     0.14300
F1523       F  0.08768944  0.69779485  0.13841296    -0.13000
F1524       F  0.29482506  0.82940071  0.11188834    -0.13500
F1525       F  0.11296921  0.69518011  0.10015966    -0.15800
F1526       F  0.27536581  0.82143364  0.15064499    -0.14400
F1527       F  0.12069378  0.66567962  0.16378488    -0.14400
F1528       F  0.19351672  0.83101772  0.21148576    -0.15800
C1529       C  0.39487226  0.84737329  0.87017469     0.14300
C1530       C  0.37950990  0.80512152  0.85821820     0.01200
C1531       C  0.35951315  0.76015856  0.86739486     0.16200
C1532       C  0.34336585  0.75460662  0.88673762     0.25600
C1533       C  0.34756867  0.79425615  0.89711473    -0.40700
C1534       C  0.37852559  0.84171395  0.88960802     0.32700
C1535       C  0.37636693  0.80511832  0.83662400     0.01300
F1536       F  0.35244650  0.72060521  0.85726595    -0.13000
F1537       F  0.38761608  0.88156614  0.90044208    -0.13500
C1538       C  0.41584153  0.84564709  0.82576673     0.16200
C1539       C  0.41164935  0.84445274  0.80563846     0.25600
C1540       C  0.37310001  0.80020331  0.79591645    -0.40600
C1541       C  0.33099988  0.76174520  0.80629000     0.32600
C1542       C  0.33244599  0.76389870  0.82645643     0.14300
F1543       F  0.46208744  0.88347544  0.83397882    -0.13000
F1544       F  0.29282515  0.71918658  0.79694915    -0.13500
F1545       F  0.45166702  0.88270430  0.79533281    -0.15800
F1546       F  0.29266837  0.72319680  0.83561549    -0.14400
F1547       F  0.42172417  0.89351508  0.86322100    -0.14400
F1548       F  0.31781758  0.70936595  0.89463436    -0.15800
C1549       C  0.10526813  0.90647819  0.82728895     0.14300
C1550       C  0.14374453  0.89770894  0.83359770     0.01200
C1551       C  0.16638179  0.88069979  0.81986713     0.16200
C1552       C  0.14973541  0.87118982  0.80029921     0.25600
C1553       C  0.11139866  0.88030568  0.79409395    -0.40700
C1554       C  0.09094137  0.89974162  0.80773757     0.32700
C1555       C  0.16207715  0.90951818  0.85425183     0.01300
F1556       F  0.20211261  0.87059460  0.82583432    -0.13000
F1557       F  0.05409559  0.90926730  0.80222107    -0.13500
C1558       C  0.12439426  0.88901294  0.86963077     0.16200
C1559       C  0.13951900  0.90748797  0.88879437     0.25600
C1560       C  0.19251420  0.94707536  0.89278817    -0.40600
C1561       C  0.23110498  0.96525905  0.87771093     0.32600
C1562       C  0.21615740  0.94624835  0.85868620     0.14300
F1563       F  0.07247369  0.85242496  0.86586170    -0.13000
F1564       F  0.28681367  0.50490414  0.88134990    -0.13500
F1565       F  0.10159978  0.88962614  0.90321439    -0.15800
F1566       F  0.25377915  0.96685603  0.84438344    -0.14400
F1567       F  0.08211116  0.92259267  0.84003310    -0.14400
F1568       F  0.16807105  0.85009416  0.78778204    -0.15800
C1569       C  0.18862972  0.89352456  0.62082273     0.14300
C1570       C  0.15469020  0.90941929  0.62731924     0.01200
C1571       C  0.13936834  0.92986792  0.61308112     0.16200
C1572       C  0.16402826  0.94123353  0.59477487     0.25600
C1573       C  0.20693195  0.93585954  0.59066775    -0.40700
C1574       C  0.21584620  0.90787688  0.60293644     0.32700
C1575       C  0.13779672  0.90613332  0.64856312     0.01300
F1576       F  0.10363419  0.94259175  0.61666275    -0.13000
F1577       F  0.25381860  0.89794714  0.59834113    -0.13500
C1578       C  0.17093485  0.90878146  0.66371605     0.16200
C1579       C  0.15250892  0.89965585  0.68317494     0.25600
C1580       C  0.10348427  0.89409045  0.68850317    -0.40600
C1581       C  0.07487161  0.89957490  0.67382434     0.32600
C1582       C  0.08814736  0.89929102  0.65419680     0.14300
F1583       F  0.21988555  0.91683344  0.65961183    -0.13000
F1584       F  0.02752965  0.89537063  0.67814374    -0.13500
F1585       F  0.18038095  0.89212957  0.69628735    -0.15800
F1586       F  0.04880231  0.88609565  0.64109996    -0.14400
F1587       F  0.19524112  0.86366724  0.63163162    -0.14400
F1588       F  0.15021926  0.46328717  0.58182046    -0.15800
C1589       C  0.27819384  0.70991231  0.67117397     0.14300
C1590       C  0.30634604  0.73992710  0.65513461     0.01200
C1591       C  0.34884504  0.78957395  0.65898776     0.16200
C1592       C  0.36597594  0.80692814  0.67790115     0.25600
C1593       C  0.34408072  0.77426875  0.69333708    -0.40700
C1594       C  0.29704022  0.72710191  0.69018437     0.32700
C1595       C  0.29314647  0.72118636  0.63446743     0.01300
F1596       F  0.37545795  0.82155568  0.64444371    -0.13000
F1597       F  0.27210874  0.69637460  0.70525497    -0.13500
C1598       C  0.23970927  0.69400472  0.62750201     0.16200
C1599       C  0.23020603  0.69021683  0.60751956     0.25600
C1600       C  0.27375115  0.71442282  0.59440134    -0.40600
C1601       C  0.32601447  0.73339959  0.60087490     0.32600
C1602       C  0.33552115  0.73624447  0.62078288     0.14300
F1603       F  0.19664729  0.67531023  0.63970858    -0.13000
F1604       F  0.36849028  0.75496272  0.58822856    -0.13500
F1605       F  0.17878266  0.66860971  0.60118043    -0.15800
F1606       F  0.38709372  0.75869944  0.62677219    -0.14400
F1607       F  0.23554263  0.66277222  0.66850984    -0.14400
F1608       F  0.40920075  0.85403545  0.68084334    -0.15800
C1609       C  0.09194092  0.69606438  0.83819374     0.14300
C1610       C  0.04631787  0.67227384  0.85054834     0.01200
C1611       C  0.99740277  0.63279529  0.84249886     0.16200
C1612       C  0.99421346  0.61933422  0.82265053     0.25600
C1613       C  0.03962769  0.64465575  0.81024733    -0.40700
C1614       C  0.08875068  0.68236100  0.81839730     0.32700
C1615       C  0.04920321  0.69058408  0.87128862     0.01300
F1616       F  0.95179841  0.60842383  0.85352109    -0.13000
F1617       F  0.13430079  0.70399300  0.80729166    -0.13500
C1618       C  0.07493440  0.74170312  0.87573393     0.16200
C1619       C  0.07228757  0.75837520  0.89459029     0.25600
C1620       C  0.04076965  0.72492357  0.90912099    -0.40600
C1621       C  0.01963023  0.67446274  0.90544539     0.32600
C1622       C  0.02452967  0.65750604  0.88678684     0.14300
F1623       F  0.09920615  0.77566370  0.86160251    -0.13000
F1624       F  0.99147535  0.64130892  0.91957307    -0.13500
F1625       F  0.09694222  0.80740183  0.89835399    -0.15800
F1626       F  0.00381924  0.60856130  0.88377854    -0.14400
F1627       F  0.14022642  0.73178746  0.84553696    -0.14400
F1628       F  0.94659416  0.58097776  0.81552168    -0.15800
C1629       C  0.18446774  0.53317867  0.82631415     0.14300
C1630       C  0.18102581  0.56682889  0.83887066     0.01200
C1631       C  0.17713729  0.60341470  0.83053485     0.16200
C1632       C  0.17068970  0.60258661  0.81033153     0.25600
C1633       C  0.16462580  0.56334075  0.79815453    -0.40700
C1634       C  0.17537255  0.53072050  0.80619068     0.32700
C1635       C  0.18247842  0.56319758  0.86045104     0.01300
F1636       F  0.17631887  0.63810647  0.84200769    -0.13000
F1637       F  0.17534912  0.49570531  0.79472374    -0.13500
C1638       C  0.22701740  0.59913922  0.87141085     0.16200
C1639       C  0.23917153  0.58667075  0.88899305     0.25600
C1640       C  0.20191583  0.54080727  0.89730199    -0.40600
C1641       C  0.15039666  0.51127222  0.88876949     0.32600
C1642       C  0.14172014  0.52099030  0.87002798     0.14300
F1643       F  0.25894268  0.64551231  0.86477585    -0.13000
F1644       F  0.10913285  0.47235281  0.89834027    -0.13500
F1645       F  0.28817890  0.61774732  0.89720071    -0.15800
F1646       F  0.09325177  0.49004674  0.86142189    -0.14400
F1647       F  0.19814511  0.50360624  0.83361480    -0.14400
F1648       F  0.16446342  0.63724162  0.80288120    -0.15800
C1649       C  0.22975605  0.57122273  0.66934792     0.14300
C1650       C  0.19604432  0.54576041  0.65353071     0.01200
C1651       C  0.13996522  0.52057053  0.65687133     0.16200
C1652       C  0.11930276  0.51773337  0.67585157     0.25600
C1653       C  0.15373071  0.54667891  0.69142264    -0.40700
C1654       C  0.20950220  0.57360165  0.68773078     0.32700
C1655       C  0.22128389  0.54499209  0.63425821     0.01300
F1656       F  0.10480459  0.49994239  0.64196220    -0.13000
F1657       F  0.24461966  0.60514805  0.70144024    -0.13500
C1658       C  0.25766985  0.52978180  0.63338990     0.16200
C1659       C  0.28101840  0.52751963  0.61568425     0.25600
C1660       C  0.26921710  0.54064328  0.59820477    -0.40600
C1661       C  0.23646729  0.55980637  0.59919218     0.32600
C1662       C  0.21216696  0.56134874  0.61699193     0.14300
F1663       F  0.26803738  0.51387117  0.64958728    -0.13000
F1664       F  0.22361360  0.57226850  0.58259877    -0.13500
F1665       F  0.31066132  0.50721395  0.61522510    -0.15800
F1666       F  0.17855823  0.57745226  0.61721267    -0.14400
F1667       F  0.28322951  0.59681814  0.66638453    -0.14400
F1668       F  0.06497602  0.48951844  0.67870393    -0.15800
C1669       C  0.13041331  0.72127585  0.67447364     0.14300
C1670       C  0.08909443  0.72513235  0.66742001     0.01200
C1671       C  0.05303617  0.72528632  0.68114191     0.16200
C1672       C  0.05393229  0.71572960  0.70090031     0.25600
C1673       C  0.09213902  0.70690053  0.70738635    -0.40700
C1674       C  0.13462406  0.71650133  0.69443596     0.32700
C1675       C  0.08278037  0.72811358  0.64589944     0.01300
F1676       F  0.01247970  0.72814257  0.67486567    -0.13000
F1677       F  0.17401744  0.71073290  0.70041397    -0.13500
C1678       C  0.07310897  0.68992890  0.63252212     0.16200
C1679       C  0.06371177  0.69214148  0.61264292     0.25600
C1680       C  0.06588721  0.73350000  0.60546489    -0.40600
C1681       C  0.07800616  0.77235231  0.61874633     0.32600
C1682       C  0.08482596  0.76901424  0.63868589     0.14300
F1683       F  0.06942779  0.64906269  0.63890383    -0.13000
F1684       F  0.07720529  0.81117353  0.61266435    -0.13500
F1685       F  0.05028826  0.65294476  0.60052373    -0.15800
F1686       F  0.09151199  0.80503830  0.65126004    -0.14400
F1687       F  0.16336831  0.71691654  0.66187750    -0.14400
F1688       F  0.01388791  0.70937996  0.71307855    -0.15800
C1689       C  0.45562067  0.74674199  0.86871331     0.14300
C1690       C  0.42535916  0.69567464  0.86396665     0.01200
C1691       C  0.40474472  0.66176952  0.87918446     0.16200
C1692       C  0.41593767  0.67863201  0.89857695     0.25600
C1693       C  0.44855651  0.72950467  0.90309775    -0.40700
C1694       C  0.46607561  0.76338398  0.88817528     0.32700
C1695       C  0.41248271  0.67808732  0.84327720     0.01300
F1696       F  0.37592026  0.61224206  0.87532160    -0.13000
F1697       F  0.49504394  0.81262216  0.89254692    -0.13500
C1698       C  0.45336350  0.69529217  0.82900180     0.16200
C1699       C  0.44124578  0.67318397  0.81029284     0.25600
C1700       C  0.38780312  0.63633156  0.80524604    -0.40600
C1701       C  0.34655032  0.62710444  0.81827549     0.32600
C1702       C  0.35890064  0.64359777  0.83755229     0.14300
F1703       F  0.50560925  0.72954744  0.83366355    -0.13000
F1704       F  0.29422037  0.59651799  0.81294751    -0.13500
F1705       F  0.48204569  0.68576311  0.79755442    -0.15800
F1706       F  0.31868940  0.62293662  0.85078462    -0.14400
F1707       F  0.47249561  0.78035718  0.85452559    -0.14400
F1708       F  0.39803060  0.64527845  0.91292671    -0.15800
C1709       C  0.34483056  0.89984548  0.83097988     0.14300
C1710       C  0.29350702  0.85593040  0.83361596     0.01200
C1711       C  0.26259214  0.83124928  0.81673535     0.16200
C1712       C  0.28004738  0.85239564  0.79835034     0.25600
C1713       C  0.32856228  0.89870552  0.79643022    -0.40700
C1714       C  0.36266589  0.91985332  0.81257739     0.32700
C1715       C  0.27324830  0.83679795  0.85380721     0.01300
F1716       F  0.21186529  0.79069594  0.81823233    -0.13000
F1717       F  0.40960340  0.96464654  0.81111520    -0.13500
C1718       C  0.28128575  0.86914494  0.86977297     0.16200
C1719       C  0.27357471  0.85301128  0.88901353     0.25600
C1720       C  0.25691520  0.80414058  0.89259914    -0.40600
C1721       C  0.24056049  0.77023955  0.87683546     0.32600
C1722       C  0.24908450  0.78642799  0.85771904     0.14300
F1723       F  0.29836082  0.91682909  0.86684337    -0.13000
F1724       F  0.22023692  0.72186709  0.87997704    -0.13500
F1725       F  0.28650908  0.88601918  0.90407299    -0.15800
F1726       F  0.23540729  0.75261783  0.84311010    -0.14400
F1727       F  0.37659609  0.92616567  0.84633404    -0.14400
F1728       F  0.24647969  0.83057704  0.78291796    -0.15800
C1729       C  0.43439842  0.62697554  0.67194962     0.14300
C1730       C  0.41225720  0.64973902  0.66279003     0.01200
C1731       C  0.38425665  0.66598473  0.67398878     0.16200
C1732       C  0.37565250  0.65709250  0.69385707     0.25600
C1733       C  0.39292783  0.62993542  0.70238107    -0.40700
C1734       C  0.42514953  0.61759013  0.69167090     0.32700
C1735       C  0.42167984  0.65994077  0.64191211     0.01300
F1736       F  0.35938306  0.68472214  0.66508248    -0.13000
F1737       F  0.44392871  0.59285081  0.70013645    -0.13500
C1738       C  0.41482805  0.62341125  0.62823192     0.16200
C1739       C  0.43078643  0.63585455  0.60891154     0.25600
C1740       C  0.45154797  0.68422269  0.60326363    -0.40600
C1741       C  0.45241249  0.71866454  0.61624664     0.32600
C1742       C  0.44068399  0.70762610  0.63563119     0.14300
F1743       F  0.39610671  0.57690910  0.63384005    -0.13000
F1744       F  0.97179773  0.76533126  0.61053632    -0.13500
F1745       F  0.42974718  0.60223871  0.59615874    -0.15800
F1746       F  0.45343095  0.74525099  0.64836428    -0.14400
F1747       F  0.46601100  0.61499042  0.66197842    -0.14400
F1748       F  0.34650401  0.67087393  0.70437717    -0.15800
C1749       C  0.28665768  0.84167554  0.67093540     0.14300
C1750       C  0.31075189  0.87051819  0.65420173     0.01200
C1751       C  0.34805137  0.92184624  0.65724601     0.16200
C1752       C  0.36063054  0.94300645  0.67614107     0.25600
C1753       C  0.33265428  0.91449615  0.69255987    -0.40700
C1754       C  0.29642267  0.86335665  0.68971595     0.32700
C1755       C  0.29662990  0.84744205  0.63383571     0.01300
F1756       F  0.36972692  0.95251455  0.64197251    -0.13000
F1757       F  0.26830582  0.83440298  0.70499440    -0.13500
C1758       C  0.24279394  0.81015460  0.62891363     0.16200
C1759       C  0.22930178  0.78843456  0.61013702     0.25600
C1760       C  0.26924615  0.80155556  0.59589708    -0.40600
C1761       C  0.32289222  0.83909851  0.60041077     0.32600
C1762       C  0.33650272  0.86201571  0.61903391     0.14300
F1763       F  0.20245890  0.79539899  0.64213787    -0.13000
F1764       F  0.36264424  0.85218458  0.58693248    -0.13500
F1765       F  0.17730040  0.75288731  0.60601758    -0.15800
F1766       F  0.38949004  0.89582005  0.62285337    -0.14400
F1767       F  0.25439735  0.79191651  0.66936267    -0.14400
F1768       F  0.39698810  0.99259472  0.67828865    -0.15800
O1769       O  0.80767187  0.05890546  0.97635247    -0.79300
O1770       O  0.80823320  0.20639830  0.03682546    -0.64000
O1771       O  0.82481309  0.13205282  0.99786193    -1.10600
C1772       C  0.93341818  0.25946092  0.97011935     1.07600
O1773       O  0.80766789  0.26364378  0.01883362    -0.77200
O1774       O  0.80905601  0.26367302  0.97934724    -0.64800
Ni1775     Ni  0.86264617  0.10274300  0.99637750     1.34900
C1776       C  0.79990786  0.24005912  0.96321970     0.86300
O1777       O  0.79392398  0.11004506  0.03520355    -0.77700
O1778       O  0.81574582  0.06087995  0.01800542    -0.88000
C1779       C  0.79275108  0.23624779  0.03393100     0.85900
O1780       O  0.92131449  0.14837438  0.01523866    -0.66200
O1781       O  0.91876984  0.28804570  0.97808179    -0.85500
C1782       C  0.92939890  0.18469946  0.02649839     0.86800
C1783       C  0.79300513  0.06928159  0.03272242     1.08300
H1784       H  0.88226831  0.22607670  0.00144298     0.40100
O1785       O  0.84519744  0.21437318  0.99952590    -1.08100
O1786       O  0.81368153  0.20881425  0.96005283    -0.64800
Ni1787     Ni  0.82555932  0.17094247  0.97821300     1.26300
O1788       O  0.89398280  0.19584112  0.02799748    -0.65000
O1789       O  0.90308250  0.21109073  0.97098045    -0.77300
C1790       C  0.78971426  0.07081830  0.96193615     0.86100
O1791       O  0.80419045  0.11640572  0.95924329    -0.64500
Ni1792     Ni  0.86224988  0.27703256  0.99845429     1.27400
Ni1793     Ni  0.82044609  0.16688424  0.01843718     1.26100
H1794       H  0.78751443  0.10441793  0.99764468     0.40700
O1795       O  0.72744972  0.16713833  0.51663964    -0.79300
O1796       O  0.88192571  0.16994279  0.46244065    -0.64000
O1797       O  0.77749225  0.12303883  0.50455094    -1.10600
C1798       C  0.94594825  0.20615960  0.53556904     1.07600
O1799       O  0.95456035  0.19007818  0.48061639    -0.77200
O1800       O  0.87276220  0.08225259  0.51749353    -0.64800
Ni1801     Ni  0.71451803  0.11365703  0.49812899     1.34900
C1802       C  0.83649019  0.07259457  0.53030428     0.86300
O1803       O  0.79372528  0.07494864  0.47814008    -0.77700
O1804       O  0.70841211  0.06035621  0.47939407    -0.88000
C1805       C  0.93450439  0.19360120  0.46489642     0.85900
O1806       O  0.73812340  0.16137523  0.47790057    -0.66200
O1807       O  0.95611172  0.18504512  0.52131202    -0.85500
C1808       C  0.78351960  0.20198644  0.47528668     0.86800
C1809       C  0.74190339  0.04685545  0.47419198     1.08300
H1810       H  0.89607871  0.20324246  0.50054072     0.40100
O1811       O  0.87191678  0.16784902  0.50185897    -1.08100
O1812       O  0.82168450  0.10209210  0.53316039    -0.64800
Ni1813     Ni  0.82993156  0.16063601  0.52399131     1.26300
O1814       O  0.82707570  0.20685534  0.48104139    -0.65000
O1815       O  0.89907013  0.20147560  0.53833568    -0.77300
C1816       C  0.77177377  0.20621677  0.52319468     0.86100
O1817       O  0.81940019  0.21399058  0.51945716    -0.64500
Ni1818     Ni  0.91327785  0.13959929  0.49987572     1.27400
Ni1819     Ni  0.82147574  0.14442623  0.48177431     1.26100
H1820       H  0.76602747  0.08994382  0.50777351     0.40700
N1821       N  0.84049732  0.51727937  0.72315608    -0.35000
N1822       N  0.82943155  0.44472106  0.74677723    -0.55600
N1823       N  0.85434468  0.51850452  0.77853008    -0.35000
N1824       N  0.85842237  0.08717445  0.75372498    -0.55600
C1825       C  0.81821863  0.47734459  0.71095249     0.28600
C1826       C  0.83179360  0.04764273  0.71537667     0.28600
C1827       C  0.83204163  0.47482958  0.78754724     0.28600
C1828       C  0.84614019  0.04687977  0.79136442     0.28600
C1829       C  0.83751382  0.42719180  0.72974762     0.37200
C1830       C  0.84057822  0.42505457  0.76122942     0.37200
C1831       C  0.87689869  0.11692358  0.73841698     0.37200
C1832       C  0.87908532  0.11672199  0.76962346     0.37200
C1833       C  0.79257921  0.48354611  0.69608366    -0.20300
C1834       C  0.80276124  0.02726179  0.69841775    -0.20300
C1835       C  0.81389273  0.47881319  0.80580233    -0.20300
C1836       C  0.82204277  0.02211641  0.80844627    -0.20300
C1837       C  0.85379638  0.39561847  0.73337210    -0.21300
C1838       C  0.85551296  0.39417611  0.75348798    -0.21300
C1839       C  0.90805345  0.16606238  0.74438393    -0.21300
C1840       C  0.90835370  0.16585999  0.76438575    -0.21300
C1841       C  0.82863817  0.43996960  0.71145615    -0.16700
C1842       C  0.86400932  0.09852800  0.71937914    -0.16700
C1843       C  0.86897399  0.09822043  0.78847992    -0.16700
C1844       C  0.83496508  0.43405755  0.78111511    -0.16700
H1845       H  0.77562871  0.46041981  0.68337776     0.16200
H1846       H  0.79307442  0.04535160  0.68814944     0.16200
H1847       H  0.79601473  0.45107884  0.81671898     0.16200
H1848       H  0.81588969  0.03592391  0.82207040     0.16200
H1849       H  0.86418354  0.37657443  0.72272543     0.14500
H1850       H  0.86830417  0.37456252  0.76157748     0.14500
H1851       H  0.92746469  0.19830058  0.73539426     0.14500
H1852       H  0.92848988  0.19810032  0.77377359     0.14500
H1853       H  0.87075965  0.52690151  0.73315181     0.27800
H1854       H  0.87716298  0.52790403  0.76573223     0.27800
N1855       N  0.59371834  0.10276369  0.72249773    -0.35000
N1856       N  0.61966809  0.04909392  0.74533723    -0.55600
N1857       N  0.57112338  0.07787729  0.77602080    -0.35000
N1858       N  0.54576382  0.13380695  0.75442985    -0.55600
C1859       C  0.59908761  0.07495847  0.70844179     0.28600
C1860       C  0.56772463  0.12150223  0.71463808     0.28600
C1861       C  0.57868066  0.04398487  0.78296070     0.28600
C1862       C  0.53701030  0.08131168  0.78834633     0.28600
C1863       C  0.64655183  0.04989076  0.72902652     0.37200
C1864       C  0.64650794  0.04919448  0.76090853     0.37200
C1865       C  0.56376670  0.17083780  0.74183270     0.37200
C1866       C  0.54615432  0.15195457  0.77256676     0.37200
C1867       C  0.57532914  0.07633664  0.69149256    -0.20300
C1868       C  0.55427099  0.10402971  0.69562459    -0.20300
C1869       C  0.54590018  0.02248642  0.79909187    -0.20300
C1870       C  0.52021126  0.04654280  0.80269305    -0.20300
C1871       C  0.68911463  0.04614098  0.73428902    -0.21300
C1872       C  0.69029621  0.04770236  0.75457590    -0.21300
C1873       C  0.57303137  0.21285810  0.75177922    -0.21300
C1874       C  0.56210778  0.20097240  0.77134783    -0.21300
C1875       C  0.63228100  0.05585114  0.71009910    -0.16700
C1876       C  0.57263491  0.16531936  0.72177147    -0.16700
C1877       C  0.53500004  0.12387112  0.78965686    -0.16700
C1878       C  0.62820337  0.04869027  0.78024817    -0.16700
H1879       H  0.57644480  0.06357842  0.67690830     0.16200
H1880       H  0.53754630  0.11559720  0.68500156     0.16200
H1881       H  0.54707417  0.99783478  0.80893366     0.16200
H1882       H  0.49775029  0.04270290  0.81585666     0.16200
H1883       H  0.71725057  0.04360375  0.72480962     0.14500
H1884       H  0.71900305  0.04649431  0.76346644     0.14500
H1885       H  0.58806581  0.24862583  0.74575032     0.14500
H1886       H  0.56815051  0.22634871  0.78326290     0.14500
H1887       H  0.61630176  0.11715400  0.73517674     0.27800
H1888       H  0.59898130  0.10577909  0.76688964     0.27800
N1889       N  0.98908695  0.31412009  0.76917495    -0.35000
N1890       N  0.57347096  0.35310363  0.74103523    -0.55600
N1891       N  0.98246839  0.32376537  0.71571767    -0.35000
N1892       N  0.89888455  0.28251611  0.74364475    -0.55600
C1893       C  0.53050141  0.31837945  0.77884902     0.28600
C1894       C  0.94450360  0.28754729  0.78028316     0.28600
C1895       C  0.52362876  0.32991689  0.70433776     0.28600
C1896       C  0.93686834  0.29586020  0.70512444     0.28600
C1897       C  0.60386336  0.37538103  0.75699770     0.37200
C1898       C  0.60061720  0.38135334  0.72569910     0.37200
C1899       C  0.87459087  0.28252195  0.76028868     0.37200
C1900       C  0.86918699  0.28248604  0.72936282     0.37200
C1901       C  0.51121531  0.29177386  0.79577678    -0.20300
C1902       C  0.95721010  0.27365502  0.79697024    -0.20300
C1903       C  0.50333035  0.30396977  0.68692795    -0.20300
C1904       C  0.94931153  0.28394042  0.68728955    -0.20300
C1905       C  0.65257952  0.41774797  0.75175149    -0.21300
C1906       C  0.65051911  0.42153330  0.73171861    -0.21300
C1907       C  0.82678600  0.27891772  0.75674545    -0.21300
C1908       C  0.82312478  0.27857037  0.73677282    -0.21300
C1909       C  0.58507880  0.35687419  0.77585257    -0.16700
C1910       C  0.89740759  0.28739167  0.77826391    -0.16700
C1911       C  0.88570210  0.28700003  0.70999675    -0.16700
C1912       C  0.57830523  0.36909991  0.70681818    -0.16700
H1913       H  0.53501032  0.29091687  0.80717133     0.16200
H1914       H  0.93092655  0.25563692  0.80933974     0.16200
H1915       H  0.52626665  0.30641284  0.67405720     0.16200
H1916       H  0.92322038  0.26813037  0.67500786     0.16200
H1917       H  0.68529394  0.44355662  0.76131329     0.14500
H1918       H  0.68143447  0.45074919  0.72278223     0.14500
H1919       H  0.79871876  0.27826709  0.76736001     0.14500
H1920       H  0.79183576  0.27782007  0.72874954     0.14500
H1921       H  0.99289305  0.33762784  0.75848099     0.27800
H1922       H  0.98671660  0.34591941  0.72783862     0.27800
C1923       C  0.98518496  0.22617503  0.55227824     0.03900
C1924       C  0.54457531  0.25650488  0.55247837     0.03900
C1925       C  0.57024599  0.25638786  0.56980626    -0.16700
C1926       C  0.54055901  0.22873494  0.58613183     0.03900
C1927       C  0.98401121  0.20233167  0.58553977     0.03900
C1928       C  0.95766778  0.20194578  0.56928992    -0.16700
H1929       H  0.91379141  0.18035432  0.56996689     0.05900
H1930       H  0.61388341  0.27857240  0.57089096     0.05900
C1931       C  0.78463984  0.47790394  0.54287106     0.03900
C1932       C  0.81357979  0.03164483  0.54532494     0.03900
C1933       C  0.81201422  0.05059944  0.56443928    -0.16700
C1934       C  0.77841584  0.02032271  0.57954049     0.03900
C1935       C  0.74826678  0.46875418  0.57611097     0.03900
C1936       C  0.75620071  0.44900898  0.55916673    -0.16700
H1937       H  0.73454038  0.40883895  0.55812120     0.05900
H1938       H  0.83415287  0.09024134  0.56729234     0.05900
C1939       C  0.78124161  0.25481934  0.94635683     0.03900
C1940       C  0.74286403  0.26923448  0.94587475     0.03900
C1941       C  0.73176694  0.28079838  0.92757520    -0.16700
C1942       C  0.76244275  0.28614833  0.91101239     0.03900
C1943       C  0.80467722  0.27898717  0.91264433     0.03900
C1944       C  0.81059854  0.25997787  0.92932377    -0.16700
H1945       H  0.84139724  0.25192057  0.92919366     0.05900
H1946       H  0.70028032  0.28788366  0.92626768     0.05900
C1947       C  0.76570853  0.23240190  0.54066224     0.03900
C1948       C  0.74297115  0.26237344  0.54199807     0.03900
C1949       C  0.74095503  0.28206815  0.56056922    -0.16700
C1950       C  0.75891109  0.27254955  0.57732056     0.03900
C1951       C  0.77276469  0.23749679  0.57623723     0.03900
C1952       C  0.77719250  0.21881546  0.55817592    -0.16700
H1953       H  0.78972798  0.19300887  0.55783397     0.05900
H1954       H  0.72996994  0.30898285  0.56179921     0.05900
C1955       C  0.73158290  0.47928658  0.94645832     0.03900
C1956       C  0.75167936  0.03171155  0.94679070     0.03900
C1957       C  0.73908780  0.04999232  0.93068729    -0.16700
C1958       C  0.71413503  0.02107144  0.91374447     0.03900
C1959       C  0.70997051  0.47481678  0.91186059     0.03900
C1960       C  0.71542288  0.45376143  0.92821554    -0.16700
H1961       H  0.70347560  0.41553697  0.92682742     0.05900
H1962       H  0.74895910  0.08754304  0.93112317     0.05900
C1963       C  0.53128584  0.28450400  0.95774304     0.03900
C1964       C  0.98034604  0.28072698  0.95552435     0.03900
C1965       C  0.95873475  0.26936745  0.93653502    -0.16700
C1966       C  0.97573075  0.24944355  0.92184188     0.03900
C1967       C  0.51728148  0.24227105  0.92540876     0.03900
C1968       C  0.54421373  0.25960371  0.94314779    -0.16700
H1969       H  0.57905101  0.25734437  0.94453678     0.05900
H1970       H  0.92309565  0.26938019  0.93387010     0.05900
O1971       O  0.56174484  0.29441077  0.52091694    -0.79300
O1972       O  0.69582292  0.27497154  0.48242143    -0.64000
O1973       O  0.64405902  0.31898238  0.49964314    -1.10600
C1974       C  0.77199554  0.44225693  0.52583948     1.07600
O1975       O  0.78814550  0.32188948  0.48407124    -0.77200
O1976       O  0.78348965  0.33199809  0.52278942    -0.64800
Ni1977     Ni  0.60105571  0.34569697  0.50173080     1.34900
C1978       C  0.73961504  0.29067981  0.52613082     0.86300
O1979       O  0.61840096  0.28762021  0.46259650    -0.77700
O1980       O  0.55903865  0.30042548  0.47982648    -0.88000
C1981       C  0.74279347  0.28192431  0.47852639     0.85900
O1982       O  0.64007525  0.40414137  0.48443360    -0.66200
O1983       O  0.80749970  0.43099303  0.52052546    -0.85500
C1984       C  0.67788601  0.41537511  0.47211886     0.86800
C1985       C  0.57074758  0.28113977  0.46523410     1.08300
H1986       H  0.74954660  0.39806456  0.49334208     0.40100
O1987       O  0.73848780  0.36525630  0.49674231    -1.08100
O1988       O  0.69431850  0.28304129  0.52068457    -0.64800
Ni1989     Ni  0.69545958  0.34352131  0.51955777     1.26300
O1990       O  0.69357491  0.38656952  0.46948623    -0.65000
O1991       O  0.72011938  0.41219909  0.52213077    -0.77300
C1992       C  0.58242139  0.29072472  0.53649526     0.86100
O1993       O  0.63509301  0.31628129  0.53913831    -0.64500
Ni1994     Ni  0.80257907  0.37723591  0.50205159     1.27400
Ni1995     Ni  0.68626572  0.32809602  0.47760014     1.26100
H1996       H  0.62090217  0.28346362  0.50081348     0.40700
O1997       O  0.70078655  0.25149205  0.97801147    -0.79300
O1998       O  0.69923276  0.39980370  0.03729217    -0.64000
O1999       O  0.66960951  0.30431545  0.99738397    -1.10600
C2000       C  0.71273905  0.44483783  0.96336350     1.07600
O2001       O  0.69203000  0.45449951  0.01955766    -0.77200
O2002       O  0.58322105  0.35671567  0.98126015    -0.64800
Ni2003     Ni  0.64787317  0.24032764  0.99862874     1.34900
C2004       C  0.58043371  0.32217074  0.97033083     0.86300
O2005       O  0.60562477  0.30637401  0.02408945    -0.77700
O2006       O  0.59113891  0.22982448  0.01871127    -0.88000
C2007       C  0.70857797  0.44373888  0.03475227     0.85900
O2008       O  0.70074356  0.25417198  0.01813251    -0.66200
O2009       O  0.68567456  0.44988344  0.97749563    -0.85500
C2010       C  0.71027624  0.27882076  0.03413030     0.86800
C2011       C  0.57584702  0.25841756  0.02588525     1.08300
H2012       H  0.72165499  0.41456309  0.99923596     0.40100
O2013       O  0.68537658  0.38524850  0.99855208    -1.08100
O2014       O  0.62144601  0.31925476  0.96818606    -0.64800
Ni2015     Ni  0.69354445  0.35152391  0.97833245     1.26300
O2016       O  0.69537394  0.30941350  0.03708231    -0.65000
O2017       O  0.71738228  0.40705821  0.96133690    -0.77300
C2018       C  0.71603242  0.27838875  0.96272658     0.86100
O2019       O  0.70769022  0.31316951  0.96022377    -0.64500
Ni2020     Ni  0.64055721  0.40749568  0.99938990     1.27400
Ni2021     Ni  0.68392122  0.34682143  0.01845667     1.26100
H2022       H  0.63265879  0.29209640  0.99514948     0.40700
N2023       N  0.51274220  0.18995705  0.23108480    -0.35000
N2024       N  0.92159574  0.13447410  0.25635511    -0.55600
N2025       N  0.50332482  0.15939455  0.28457158    -0.35000
N2026       N  0.59443428  0.21659666  0.25934508    -0.55600
C2027       C  0.97064435  0.18196664  0.22066525     0.28600
C2028       C  0.55827361  0.22557468  0.22215841     0.28600
C2029       C  0.95852915  0.14334118  0.29563382     0.28600
C2030       C  0.54578196  0.18543437  0.29673339     0.28600
C2031       C  0.89445890  0.11730398  0.23945081     0.37200
C2032       C  0.88837250  0.10461246  0.27043691     0.37200
C2033       C  0.62563497  0.22820040  0.24327583     0.37200
C2034       C  0.62079221  0.21186182  0.27378802     0.37200
C2035       C  0.98953086  0.21417590  0.20535558    -0.20300
C2036       C  0.54479874  0.24155275  0.20624548    -0.20300
C2037       C  0.97308458  0.15976916  0.31468230    -0.20300
C2038       C  0.52766445  0.18715968  0.31530299    -0.20300
C2039       C  0.84205002  0.07766139  0.24299487    -0.21300
C2040       C  0.83790568  0.07026085  0.26283491    -0.21300
C2041       C  0.67385219  0.23335566  0.24766345    -0.21300
C2042       C  0.67075979  0.22307391  0.26722375    -0.21300
C2043       C  0.91870783  0.13789683  0.22133179    -0.16700
C2044       C  0.60977311  0.23431990  0.22508379    -0.16700
C2045       C  0.59871948  0.19815092  0.29262548    -0.16700
C2046       C  0.90486947  0.10846525  0.28980044    -0.16700
H2047       H  0.96610569  0.21412188  0.19360530     0.16200
H2048       H  0.57175196  0.26646988  0.19523671     0.16200
H2049       H  0.94709174  0.14953106  0.32731910     0.16200
H2050       H  0.55119127  0.20283339  0.32843644     0.16200
H2051       H  0.81065777  0.05484445  0.23255454     0.14500
H2052       H  0.80287443  0.04134294  0.27054934     0.14500
H2053       H  0.70767731  0.24396470  0.23795202     0.14500
H2054       H  0.70146578  0.22405222  0.27567571     0.14500
H2055       H  0.51077175  0.16475404  0.24052312     0.27800
H2056       H  0.50428912  0.14524588  0.27082703     0.27800
N2057       N  0.86008094  0.35045798  0.27776520    -0.35000
N2058       N  0.88465848  0.30515618  0.24706974    -0.55600
N2059       N  0.85771919  0.35832456  0.22194650    -0.35000
N2060       N  0.83007892  0.40140766  0.25347097    -0.55600
C2061       C  0.86010169  0.31364629  0.28622989     0.28600
C2062       C  0.83181262  0.36225348  0.28974941     0.28600
C2063       C  0.86008610  0.32639535  0.20932773     0.28600
C2064       C  0.83385176  0.37713503  0.21244212     0.28600
C2065       C  0.90646976  0.29479845  0.26149443     0.37200
C2066       C  0.90261116  0.29666911  0.23022661     0.37200
C2067       C  0.83559013  0.42585082  0.27058887     0.37200
C2068       C  0.83378275  0.43036781  0.23909731     0.37200
C2069       C  0.83000774  0.30086309  0.30323693    -0.20300
C2070       C  0.81212685  0.33147225  0.30546400    -0.20300
C2071       C  0.83645658  0.32412979  0.19192535    -0.20300
C2072       C  0.82024174  0.35608412  0.19388450    -0.20300
C2073       C  0.93679810  0.27748127  0.25382015    -0.21300
C2074       C  0.93358351  0.27797983  0.23386761    -0.21300
C2075       C  0.84194288  0.47047741  0.26715040    -0.21300
C2076       C  0.84064933  0.47313706  0.24707959    -0.21300
C2077       C  0.89637479  0.29987247  0.28122926    -0.16700
C2078       C  0.83352352  0.40631776  0.28890095    -0.16700
C2079       C  0.83092682  0.41763646  0.21900415    -0.16700
C2080       C  0.89033651  0.30530550  0.21182383    -0.16700
H2081       H  0.82597407  0.27580632  0.31387475     0.16200
H2082       H  0.79186515  0.33440668  0.31819986     0.16200
H2083       H  0.83540618  0.30484762  0.17857508     0.16200
H2084       H  0.80464138  0.36593992  0.18232960     0.23800
H2085       H  0.95807507  0.26501775  0.26158869     0.14500
H2086       H  0.95168887  0.26585847  0.22325737     0.14500
H2087       H  0.84776896  0.49808701  0.27795465     0.14500
H2088       H  0.84606037  0.50323764  0.23898398     0.14500
H2089       H  0.88702977  0.37294186  0.26697371     0.27800
H2090       H  0.87939621  0.37270107  0.23478082     0.27800
C2091       C  0.72598624  0.00943648  0.45748499     0.03900
C2092       C  0.70037405  0.45553658  0.45670449     0.03900
C2093       C  0.70525178  0.43527759  0.43847172    -0.16700
C2094       C  0.73423985  0.46399436  0.42271796     0.03900
C2095       C  0.75132361  0.01337109  0.42269319     0.03900
C2096       C  0.74605501  0.03530597  0.43977115    -0.16700
H2097       H  0.76140586  0.07443098  0.43949071     0.05900
H2098       H  0.68969998  0.39621713  0.43661250     0.05900
N2099       N  0.64070063  0.01266108  0.22059132    -0.35000
N2100       N  0.61385635  0.43320913  0.24477573    -0.55600
N2101       N  0.66093357  0.01150415  0.27565561    -0.35000
N2102       N  0.68367318  0.09106440  0.25286985    -0.55600
C2103       C  0.59171642  0.46936208  0.21357139     0.28600
C2104       C  0.63482117  0.05044275  0.21862075     0.28600
C2105       C  0.65994083  0.47217784  0.28262117     0.28600
C2106       C  0.69044723  0.05053054  0.28824885     0.28600
C2107       C  0.59149076  0.40467028  0.22850716     0.37200
C2108       C  0.60040702  0.40332716  0.25993413     0.37200
C2109       C  0.70218400  0.11949564  0.23712711     0.37200
C2110       C  0.70759327  0.11977332  0.26868993     0.37200
C2111       C  0.55382077  0.47989209  0.20922479    -0.20300
C2112       C  0.58387234  0.03374581  0.21195027    -0.20300
C2113       C  0.69112972  0.48799692  0.29922037    -0.20300
C2114       C  0.70645434  0.03540848  0.30353616    -0.20300
C2115       C  0.56442391  0.35545435  0.23327567    -0.21300
C2116       C  0.56900591  0.35450783  0.25329678    -0.21300
C2117       C  0.74071577  0.16784862  0.24281892    -0.21300
C2118       C  0.74198402  0.16849984  0.26301247    -0.21300
C2119       C  0.58647966  0.42382343  0.21103237    -0.16700
C2120       C  0.67898729  0.09928079  0.21875018    -0.16700
C2121       C  0.70232165  0.09938737  0.28709043    -0.16700
C2122       C  0.61867555  0.42169444  0.27913699    -0.16700
H2123       H  0.51315113  0.45433296  0.20407481     0.16200
H2124       H  0.56848211  0.05593383  0.20833215     0.16200
H2125       H  0.69477851  0.46534802  0.30934231     0.16200
H2126       H  0.72490736  0.05575321  0.31673599     0.16200
H2127       H  0.54129990  0.32383022  0.22357225     0.14500
H2128       H  0.55137142  0.32165331  0.26174459     0.14500
H2129       H  0.76505788  0.19964174  0.23390298     0.14500
H2130       H  0.76706105  0.20132392  0.27188457     0.14500
H2131       H  0.67657655  0.01552178  0.22382556     0.27800
H2132       H  0.63610619  0.00929897  0.26470742     0.27800
C2133       C  0.77381502  0.03568667  0.04996542     0.03900
C2134       C  0.73849920  0.48158624  0.05113620     0.03900
C2135       C  0.73091223  0.46024709  0.06979797    -0.16700
C2136       C  0.75998356  0.48829670  0.08629414     0.03900
C2137       C  0.79448365  0.03977516  0.08453767     0.03900
C2138       C  0.80027903  0.06254529  0.06711716    -0.16700
H2139       H  0.82893220  0.10225852  0.06679879     0.05900
H2140       H  0.70245497  0.42086526  0.07161542     0.05900
C2141       C  0.74486288  0.24958141  0.46276088     0.03900
C2142       C  0.78350775  0.23569573  0.46104385     0.03900
C2143       C  0.79742643  0.22740885  0.44204931    -0.16700
C2144       C  0.76832145  0.22445428  0.42569689     0.03900
C2145       C  0.72486480  0.23045499  0.42816909     0.03900
C2146       C  0.71468118  0.24410252  0.44631210    -0.16700
H2147       H  0.68431642  0.25292032  0.44728177     0.05900
H2148       H  0.82625818  0.21686174  0.44018950     0.05900
C2149       C  0.75902553  0.23997707  0.05016779     0.03900
C2150       C  0.73200837  0.26649345  0.05096398     0.03900
C2151       C  0.71545080  0.27465691  0.06950219    -0.16700
C2152       C  0.71735733  0.25226216  0.08605644     0.03900
C2153       C  0.73447619  0.21984361  0.08442595     0.03900
C2154       C  0.75632012  0.21530100  0.06711661    -0.16700
H2155       H  0.77278826  0.19268526  0.06747597     0.05900
H2156       H  0.69790821  0.29640607  0.07112698     0.05900
C2157       C  0.53149105  0.25907691  0.44834202     0.03900
C2158       C  0.97226437  0.22448648  0.44827228     0.03900
C2159       C  0.94534547  0.21701005  0.43039284    -0.16700
C2160       C  0.97263281  0.24251697  0.41362989     0.03900
C2161       C  0.52889570  0.27632055  0.41395925     0.03900
C2162       C  0.55743447  0.28293310  0.43078414    -0.16700
H2163       H  0.60072742  0.31009981  0.43041318     0.05900
H2164       H  0.90203787  0.19101255  0.42923248     0.05900
C2165       C  0.53312421  0.24028326  0.04201481     0.03900
C2166       C  0.97322370  0.20889810  0.04239438     0.03900
C2167       C  0.94799320  0.20373658  0.06096710    -0.16700
C2168       C  0.97623862  0.22973345  0.07783360     0.03900
C2169       C  0.53277530  0.26094430  0.07715464     0.03900
C2170       C  0.55989484  0.26396654  0.05983200    -0.16700
H2171       H  0.60372583  0.28781862  0.06020644     0.05900
H2172       H  0.90434510  0.18114380  0.06227709     0.05900
C2173       C  0.59035172  0.30982287  0.36358086     0.14300
C2174       C  0.57636443  0.34323382  0.35783787     0.01200
C2175       C  0.55519166  0.35972266  0.37296354     0.16200
C2176       C  0.54731548  0.34295756  0.39195652     0.25600
C2177       C  0.55678467  0.30693051  0.39663917    -0.40700
C2178       C  0.58021583  0.29194169  0.38257416     0.32700
C2179       C  0.58218324  0.35958124  0.33667523     0.01300
F2180       F  0.53688166  0.38878769  0.36977061    -0.13000
F2181       F  0.58860575  0.25625991  0.38681810    -0.13500
C2182       C  0.58326686  0.33174018  0.32021982     0.16200
C2183       C  0.59437834  0.35023945  0.30125752     0.25600
C2184       C  0.59380862  0.39198751  0.29729574    -0.40600
C2185       C  0.58273591  0.41455025  0.31305453     0.32600
C2186       C  0.58559178  0.40353639  0.33224588     0.14300
F2187       F  0.57361223  0.28642154  0.32187715    -0.13000
F2188       F  0.57910615  0.45382309  0.31003323    -0.13500
F2189       F  0.60822152  0.32843953  0.28721090    -0.15800
F2190       F  0.59752479  0.43940523  0.34590275    -0.14400
F2191       F  0.61506016  0.29442213  0.35129894    -0.14400
F2192       F  0.02524067  0.35863038  0.40551337    -0.15800
C2193       C  0.60617953  0.35456362  0.16788411     0.14300
C2194       C  0.59218072  0.36921767  0.15128373     0.01200
C2195       C  0.58006246  0.40529721  0.15458574     0.16200
C2196       C  0.57700201  0.42185337  0.17344886     0.25600
C2197       C  0.58568209  0.40325139  0.19041805    -0.40700
C2198       C  0.60237099  0.37036312  0.18689053     0.32700
C2199       C  0.58789866  0.34513708  0.13122449     0.01300
F2200       F  0.56699131  0.42321803  0.13983113    -0.13000
F2201       F  0.62281673  0.35856855  0.20141439    -0.13500
C2202       C  0.57285749  0.29527857  0.12950314     0.16200
C2203       C  0.56497392  0.27148429  0.11129805     0.25600
C2204       C  0.56322919  0.29304033  0.09443944    -0.40600
C2205       C  0.58034347  0.34283482  0.09548563     0.32600
C2206       C  0.59497130  0.36925172  0.11342503     0.14300
F2207       F  0.55926175  0.26669700  0.14525911    -0.13000
F2208       F  0.58024901  0.36530410  0.07924753    -0.13500
F2209       F  0.55147487  0.22427786  0.11039358    -0.15800
F2210       F  0.61503669  0.41805713  0.11290154    -0.14400
F2211       F  0.62885374  0.32835486  0.16574405    -0.14400
F2212       F  0.56523509  0.45659815  0.17427235    -0.15800
C2213       C  0.77554385  0.18581413  0.33064092     0.14300
C2214       C  0.73808556  0.16120220  0.34570424     0.01200
C2215       C  0.68680458  0.11963816  0.34058537     0.16200
C2216       C  0.67343542  0.10474485  0.32105907     0.25600
C2217       C  0.71239626  0.12770171  0.30610165    -0.40700
C2218       C  0.76335637  0.16908865  0.31119817     0.32700
C2219       C  0.75460682  0.17832622  0.36645640     0.01300
F2220       F  0.65020994  0.09107440  0.35428823    -0.13000
F2221       F  0.80349658  0.19008489  0.29788923    -0.13500
C2222       C  0.78162899  0.22902750  0.37172759     0.16200
C2223       C  0.79443012  0.24521861  0.39113932     0.25600
C2224       C  0.77901515  0.21115450  0.40591905    -0.40600
C2225       C  0.75682976  0.16125037  0.40068088     0.32600
C2226       C  0.74438552  0.14496919  0.38114984     0.14300
F2227       F  0.79253047  0.26298743  0.35832497    -0.13000
F2228       F  0.74150550  0.12747782  0.41469621    -0.13500
F2229       F  0.81639752  0.29379141  0.39582548    -0.15800
F2230       F  0.71963615  0.09616598  0.37682236    -0.14400
F2231       F  0.82660986  0.22229187  0.33520958    -0.14400
F2232       F  0.62360078  0.06420547  0.31690009    -0.15800
C2233       C  0.73299516  0.18498770  0.17548903     0.14300
C2234       C  0.72572270  0.15161372  0.16029393     0.01200
C2235       C  0.71006942  0.10390384  0.16474044     0.16200
C2236       C  0.70069989  0.08931993  0.18393044     0.25600
C2237       C  0.70229449  0.12083192  0.19927626    -0.40700
C2238       C  0.71926240  0.16929740  0.19470476     0.32700
C2239       C  0.73061730  0.16510724  0.13972662     0.01300
F2240       F  0.70341844  0.07092622  0.15038736    -0.13000
F2241       F  0.71764931  0.20008469  0.20815430    -0.13500
C2242       C  0.77809851  0.20730523  0.13282989     0.16200
C2243       C  0.78089749  0.22180936  0.11379587     0.25600
C2244       C  0.73613767  0.19541998  0.10170025    -0.40600
C2245       C  0.68982383  0.15147630  0.10797452     0.32600
C2246       C  0.68681932  0.13649987  0.12698770     0.14300
F2247       F  0.82040957  0.23578432  0.14483228    -0.13000
F2248       F  0.64634860  0.12522651  0.09616350    -0.13500
F2249       F  0.82502599  0.26438818  0.10750863    -0.15800
F2250       F  0.63984191  0.09613630  0.13336035    -0.14400
F2251       F  0.74859317  0.23155789  0.17144053    -0.14400
F2252       F  0.68851623  0.04325362  0.18714558    -0.15800
C2253       C  0.92284371  0.23911776  0.32065576     0.14300
C2254       C  0.93855399  0.27449215  0.33603744     0.01200
C2255       C  0.95153091  0.32182257  0.33136421     0.16200
C2256       C  0.94624252  0.33204264  0.31234677     0.25600
C2257       C  0.92443514  0.29458282  0.29768042    -0.40700
C2258       C  0.91706861  0.24921554  0.30161683     0.32700
C2259       C  0.93804715  0.25982530  0.35661867     0.01300
F2260       F  0.96643919  0.35794973  0.34511048    -0.13000
F2261       F  0.89781416  0.21244741  0.28777740    -0.13500
C2262       C  0.95810826  0.23050824  0.36039145     0.16200
C2263       C  0.95771352  0.21534685  0.37910322     0.25600
C2264       C  0.94371644  0.23431343  0.39509621    -0.40600
C2265       C  0.92129645  0.26183483  0.39169142     0.32600
C2266       C  0.91798530  0.27413456  0.37259790     0.14300
F2267       F  0.98625916  0.22315051  0.34652949    -0.13000
F2268       F  0.90929792  0.28214548  0.40697468    -0.13500
F2269       F  0.98216836  0.19100140  0.38203696    -0.15800
F2270       F  0.89885986  0.30299723  0.37005393    -0.14400
F2271       F  0.90394559  0.19200553  0.32473827    -0.14400
F2272       F  0.95688050  0.37748262  0.30865793    -0.15800
C2273       C  0.90025351  0.23096825  0.17039105     0.14300
C2274       C  0.92756140  0.26659962  0.15583751     0.01200
C2275       C  0.94777433  0.31622809  0.16134531     0.16200
C2276       C  0.94015457  0.32911586  0.18016619     0.25600
C2277       C  0.90972052  0.29265332  0.19388544    -0.40700
C2278       C  0.89029524  0.24353711  0.18892331     0.32700
C2279       C  0.93186572  0.25182480  0.13502928     0.01300
F2280       F  0.97292759  0.35273152  0.14845877    -0.13000
F2281       F  0.85861674  0.20717529  0.20160683    -0.13500
C2282       C  0.92741220  0.27554535  0.11898916     0.16200
C2283       C  0.93611127  0.26455087  0.09986959     0.25600
C2284       C  0.94686465  0.22803806  0.09607277    -0.40600
C2285       C  0.94402575  0.19977706  0.11149502     0.32600
C2286       C  0.94053144  0.21366876  0.13079123     0.14300
F2287       F  0.91601013  0.31051577  0.12153649    -0.13000
F2288       F  0.45240729  0.16303697  0.10799907    -0.13500
F2289       F  0.93720151  0.29168238  0.08510164    -0.15800
F2290       F  0.95195550  0.19341919  0.14513602    -0.14400
F2291       F  0.87981807  0.18303377  0.16668074    -0.14400
F2292       F  0.95788377  0.37694982  0.18444604    -0.15800
C2293       C  0.73315641  0.40781082  0.37372184     0.14300
C2294       C  0.78848980  0.43401943  0.36899424     0.01200
C2295       C  0.82549132  0.46067819  0.38432373     0.16200
C2296       C  0.80683931  0.46429067  0.40294690     0.25600
C2297       C  0.75159656  0.44390332  0.40638032    -0.40700
C2298       C  0.71493780  0.41352425  0.39198537     0.32700
C2299       C  0.80550125  0.43464760  0.34799656     0.01300
F2300       F  0.87964249  0.48672895  0.38125974    -0.13000
F2301       F  0.66185788  0.39406388  0.39499757    -0.13500
C2302       C  0.77607659  0.43716201  0.33263898     0.16200
C2303       C  0.78758630  0.43223024  0.31306929     0.25600
C2304       C  0.83157697  0.42890670  0.30813187    -0.40600
C2305       C  0.86566741  0.43367176  0.32323380     0.32600
C2306       C  0.85101951  0.43330969  0.34283488     0.14300
F2307       F  0.73607951  0.44475936  0.33642802    -0.13000
F2308       F  0.90991695  0.43247751  0.31893604    -0.13500
F2309       F  0.75388536  0.42795134  0.29905326    -0.15800
F2310       F  0.87970805  0.42848400  0.35652022    -0.14400
F2311       F  0.69657773  0.37836320  0.36013009    -0.14400
F2312       F  0.84314139  0.49179226  0.41717310    -0.15800
C2313       C  0.75947339  0.44639854  0.18269881     0.14300
C2314       C  0.79359063  0.45790845  0.16611194     0.01200
C2315       C  0.84649062  0.46999610  0.16965825     0.16200
C2316       C  0.86167415  0.46483603  0.18810132     0.25600
C2317       C  0.82414248  0.44549640  0.20356170    -0.40700
C2318       C  0.77438704  0.44007256  0.20108222     0.32700
C2319       C  0.77462511  0.45618207  0.14540454     0.01300
F2320       F  0.88361952  0.48460067  0.15518312    -0.13000
F2321       F  0.73828374  0.42477850  0.21605713    -0.13500
C2322       C  0.74159625  0.47362164  0.14097465     0.16200
C2323       C  0.73181577  0.47880615  0.12162206     0.25600
C2324       C  0.75309136  0.46565307  0.10584039    -0.40600
C2325       C  0.78039209  0.44282792  0.10997090     0.32600
C2326       C  0.79078892  0.43794629  0.12938765     0.14300
F2327       F  0.72103954  0.48909267  0.15505298    -0.13000
F2328       F  0.80159867  0.42951590  0.09516391    -0.13500
F2329       F  0.70579397  0.50155515  0.11830541    -0.15800
F2330       F  0.81786417  0.41610402  0.13236512    -0.14400
F2331       F  0.70965538  0.43713562  0.18111530    -0.14400
F2332       F  0.91131922  0.47288653  0.19023601    -0.15800
C2333       C  0.75574006  0.03214711  0.36927906     0.14300
C2334       C  0.81164463  0.05948028  0.36555292     0.01200
C2335       C  0.84732507  0.07890997  0.38135755     0.16200
C2336       C  0.82754195  0.07034376  0.40056589     0.25600
C2337       C  0.77168152  0.04011119  0.40417729    -0.40700
C2338       C  0.73599892  0.02247457  0.38838314     0.32700
C2339       C  0.83174285  0.06697033  0.34510665     0.01300
F2340       F  0.90120725  0.10342296  0.37816739    -0.13000
F2341       F  0.68184865  0.99226391  0.39145798    -0.13500
C2342       C  0.81659975  0.08951322  0.33230937     0.16200
C2343       C  0.83237077  0.09478518  0.31266642     0.25600
C2344       C  0.86615183  0.07992804  0.30574933    -0.40600
C2345       C  0.87956017  0.05515320  0.31838573     0.32600
C2346       C  0.86485960  0.05118882  0.33809466     0.14300
F2347       F  0.79062965  0.11045314  0.33946539    -0.13000
F2348       F  0.91495351  0.04299777  0.31240687    -0.13500
F2349       F  0.82091263  0.12039783  0.30100064    -0.15800
F2350       F  0.88657151  0.03559987  0.35050866    -0.14400
F2351       F  0.72003881  0.01280370  0.35437707    -0.14400
F2352       F  0.86284173  0.08663225  0.41552313    -0.15800
C2353       C  0.88043515  0.06612921  0.12686169     0.14300
C2354       C  0.86023635  0.08656487  0.14036234     0.01200
C2355       C  0.82952091  0.10369591  0.13269139     0.16200
C2356       C  0.81455068  0.09522885  0.11320523     0.25600
C2357       C  0.82923295  0.06918138  0.10097905    -0.40700
C2358       C  0.86596603  0.05869517  0.10735008     0.32700
C2359       C  0.87082578  0.09003469  0.16192825     0.01300
F2360       F  0.81219092  0.12772531  0.14374964    -0.13000
F2361       F  0.88664344  0.53731399  0.09571354    -0.13500
C2362       C  0.92065948  0.10121161  0.16899401     0.16200
C2363       C  0.93095735  0.10769459  0.18891115     0.25600
C2364       C  0.89616976  0.11165493  0.20216964    -0.40600
C2365       C  0.84585869  0.09897743  0.19550523     0.32600
C2366       C  0.83217034  0.08497295  0.17593296     0.14300
F2367       F  0.96224801  0.11125739  0.15689032    -0.13000
F2368       F  0.81165867  0.10412649  0.20730226    -0.13500
F2369       F  0.97861523  0.11625253  0.19499764    -0.15800
F2370       F  0.78223861  0.07054081  0.17059585    -0.14400
F2371       F  0.91415248  0.55305468  0.13305005    -0.14400
F2372       F  0.78079783  0.10769452  0.10682387    -0.15800
C2373       C  0.64037185  0.16945335  0.38397502     0.14300
C2374       C  0.65677399  0.21069297  0.37217083     0.01200
C2375       C  0.68369383  0.25787077  0.38185984     0.16200
C2376       C  0.70074591  0.26404544  0.40116049     0.25600
C2377       C  0.69073650  0.22336636  0.41140266    -0.40700
C2378       C  0.65685488  0.17594812  0.40326427     0.32700
C2379       C  0.64851779  0.20513443  0.35020467     0.01300
F2380       F  0.69300714  0.29845098  0.37304559    -0.13000
F2381       F  0.64409260  0.13570359  0.41343604    -0.13500
C2382       C  0.60529511  0.16100509  0.34143346     0.16200
C2383       C  0.60051606  0.15494364  0.32119196     0.25600
C2384       C  0.62855312  0.19660647  0.30942446    -0.40600
C2385       C  0.67163510  0.24061646  0.31757291     0.32600
C2386       C  0.68415909  0.24363526  0.33736008     0.14300
F2387       F  0.56251437  0.12633855  0.35196726    -0.13000
F2388       F  0.69747543  0.28206626  0.30692630    -0.13500
F2389       F  0.55865944  0.11144505  0.31360893    -0.15800
F2390       F  0.72970593  0.28549147  0.34381330    -0.14400
F2391       F  0.61131563  0.12225800  0.37713268    -0.14400
F2392       F  0.73092309  0.31032063  0.40929756    -0.15800
C2393       C  0.63804976  0.20496923  0.17517856     0.14300
C2394       C  0.66864843  0.25248415  0.16720676     0.01200
C2395       C  0.68915192  0.29411246  0.17999074     0.16200
C2396       C  0.67632830  0.28829625  0.19988481     0.25600
C2397       C  0.64172273  0.24102364  0.20721891    -0.40700
C2398       C  0.62425847  0.19942940  0.19489821     0.32700
C2399       C  0.67913607  0.25811993  0.14575650     0.01300
F2400       F  0.71727300  0.34044991  0.17298885    -0.13000
F2401       F  0.59110646  0.15320462  0.20185166    -0.13500
C2402       C  0.63785468  0.22640296  0.13246693     0.16200
C2403       C  0.64936030  0.22700258  0.11256587     0.25600
C2404       C  0.70101120  0.26159477  0.10536569    -0.40600
C2405       C  0.74109320  0.29604768  0.11824098     0.32600
C2406       C  0.73095708  0.29322806  0.13828837     0.14300
F2407       F  0.58662272  0.19348203  0.13874772    -0.13000
F2408       F  0.79200281  0.32848009  0.11155825    -0.13500
F2409       F  0.61136870  0.19118004  0.10045534    -0.15800
F2410       F  0.77332853  0.32165938  0.15030783    -0.14400
F2411       F  0.62197064  0.16366111  0.16399832    -0.14400
F2412       F  0.69301922  0.32861885  0.21167745    -0.15800
C2413       C  0.89092144  0.34394097  0.87006122     0.14300
C2414       C  0.87674082  0.30219980  0.85801040     0.01200
C2415       C  0.85613422  0.25683020  0.86691249     0.16200
C2416       C  0.83857523  0.25046146  0.88607733     0.25600
C2417       C  0.84218114  0.28972895  0.89651645    -0.40700
C2418       C  0.87331465  0.33749415  0.88932108     0.32700
C2419       C  0.87566232  0.30314699  0.83646835     0.01300
F2420       F  0.84965354  0.21771372  0.85660654    -0.13000
F2421       F  0.88121343  0.37682291  0.90022786    -0.13500
C2422       C  0.91670927  0.34383071  0.82611630     0.16200
C2423       C  0.91495668  0.34314133  0.80595115     0.25600
C2424       C  0.87757893  0.29909046  0.79588142    -0.40600
C2425       C  0.83417526  0.26030501  0.80568882     0.32600
C2426       C  0.83262307  0.26240645  0.82582999     0.14300
F2427       F  0.96207366  0.38122539  0.83495975    -0.13000
F2428       F  0.79742046  0.21775314  0.79597870    -0.13500
F2429       F  0.95593090  0.38177950  0.79610283    -0.15800
F2430       F  0.79111687  0.22202710  0.83461229    -0.14400
F2431       F  0.91768075  0.39025563  0.86329045    -0.14400
F2432       F  0.81227110  0.20491277  0.89370945    -0.15800
C2433       C  0.60863917  0.40555736  0.82733789     0.14300
C2434       C  0.64850033  0.39851480  0.83352750     0.01200
C2435       C  0.67271785  0.38350027  0.81963720     0.16200
C2436       C  0.65642926  0.37430113  0.80003023     0.25600
C2437       C  0.61659626  0.38155192  0.79397071    -0.40700
C2438       C  0.59465719  0.39927547  0.80777226     0.32700
C2439       C  0.66674526  0.41030680  0.85420264     0.01300
F2440       F  0.70961877  0.37488384  0.82551347    -0.13000
F2441       F  0.55650300  0.40722783  0.80240459    -0.13500
C2442       C  0.62902647  0.38930666  0.86956155     0.16200
C2443       C  0.64393637  0.40780686  0.88873357     0.25600
C2444       C  0.69670760  0.44776010  0.89277176    -0.40600
C2445       C  0.73538122  0.46637611  0.87774392     0.32600
C2446       C  0.72066805  0.44755269  0.85869599     0.14300
F2447       F  0.57715879  0.35242452  0.86576437    -0.13000
F2448       F  0.78270989  0.00348173  0.88125460    -0.13500
F2449       F  0.60581578  0.39002827  0.90308562    -0.15800
F2450       F  0.75837664  0.46889617  0.84445909    -0.14400
F2451       F  0.58341494  0.41916406  0.84022363    -0.14400
F2452       F  0.67665724  0.35532240  0.78730205    -0.15800
C2453       C  0.68836045  0.39253266  0.62015100     0.14300
C2454       C  0.65577131  0.40951608  0.62707510     0.01200
C2455       C  0.64038982  0.43044421  0.61306129     0.16200
C2456       C  0.66370467  0.44086062  0.59453233     0.25600
C2457       C  0.70636153  0.43529568  0.59018196    -0.40700
C2458       C  0.71509876  0.40681503  0.60219990     0.32700
C2459       C  0.64057569  0.40688724  0.64849676     0.01300
F2460       F  0.60667764  0.44525361  0.61710318    -0.13000
F2461       F  0.75244415  0.39629696  0.59730352    -0.13500
C2462       C  0.67372575  0.40763352  0.66323846     0.16200
C2463       C  0.65610087  0.39846245  0.68277759     0.25600
C2464       C  0.60860720  0.39513345  0.68861846    -0.40600
C2465       C  0.58071231  0.40301553  0.67450538     0.32600
C2466       C  0.59250721  0.40255951  0.65473752     0.14300
F2467       F  0.72175066  0.41392973  0.65869206    -0.13000
F2468       F  0.53440819  0.40015013  0.67946055    -0.13500
F2469       F  0.68284075  0.38852101  0.69547943    -0.15800
F2470       F  0.55280390  0.39137159  0.64212392    -0.14400
F2471       F  0.69392054  0.36152896  0.63057119    -0.14400
F2472       F  0.65084678  0.96363720  0.58193425    -0.15800
C2473       C  0.78576998  0.21528794  0.67094397     0.14300
C2474       C  0.81385120  0.24705786  0.65534093     0.01200
C2475       C  0.85463956  0.29694367  0.65982686     0.16200
C2476       C  0.87075805  0.31284594  0.67894695     0.25600
C2477       C  0.84934557  0.27858058  0.69382620    -0.40700
C2478       C  0.80325470  0.23125288  0.69011599     0.32700
C2479       C  0.80197387  0.22959142  0.63453355     0.01300
F2480       F  0.88078677  0.33041238  0.64571401    -0.13000
F2481       F  0.77835388  0.19919332  0.70478544    -0.13500
C2482       C  0.74866120  0.20063702  0.62750781     0.16200
C2483       C  0.73910032  0.19554916  0.60753907     0.25600
C2484       C  0.78234483  0.22090910  0.59440804    -0.40600
C2485       C  0.83518872  0.24287867  0.60097368     0.32600
C2486       C  0.84485998  0.24653294  0.62092969     0.14300
F2487       F  0.70543955  0.18160480  0.63963632    -0.13000
F2488       F  0.87756608  0.26604340  0.58834770    -0.13500
F2489       F  0.68743697  0.17198246  0.60119072    -0.15800
F2490       F  0.89662837  0.27083479  0.62701988    -0.14400
F2491       F  0.74499978  0.16759413  0.66767568    -0.14400
F2492       F  0.91292100  0.36010302  0.68256870    -0.15800
C2493       C  0.58770008  0.19550605  0.83774305     0.14300
C2494       C  0.54253603  0.17087719  0.85035370     0.01200
C2495       C  0.49381305  0.13071644  0.84239938     0.16200
C2496       C  0.49035244  0.11729103  0.82250774     0.25600
C2497       C  0.53525299  0.14331815  0.80990263    -0.40700
C2498       C  0.58407101  0.18198595  0.81789256     0.32700
C2499       C  0.54546542  0.18927905  0.87116792     0.01300
F2500       F  0.44845716  0.10570795  0.85352410    -0.13000
F2501       F  0.62912127  0.20486562  0.80654340    -0.13500
C2502       C  0.57149017  0.24044906  0.87558145     0.16200
C2503       C  0.56947427  0.25743326  0.89444414     0.25600
C2504       C  0.53788113  0.22443886  0.90906429    -0.40600
C2505       C  0.51599260  0.17379136  0.90544075     0.32600
C2506       C  0.52057649  0.15643864  0.88677779     0.14300
F2507       F  0.59535582  0.27429567  0.86141025    -0.13000
F2508       F  0.48756732  0.14088712  0.91962310    -0.13500
F2509       F  0.59474666  0.30649532  0.89813004    -0.15800
F2510       F  0.49947270  0.10738458  0.88391972    -0.14400
F2511       F  0.63614819  0.23193167  0.84480718    -0.14400
F2512       F  0.44284035  0.07840945  0.81551213    -0.15800
C2513       C  0.67971674  0.03259937  0.82680571     0.14300
C2514       C  0.67505316  0.06562379  0.83928895     0.01200
C2515       C  0.67120095  0.10217746  0.83088139     0.16200
C2516       C  0.66612924  0.10192038  0.81061173     0.25600
C2517       C  0.66124808  0.06315052  0.79842773    -0.40700
C2518       C  0.67175443  0.03053267  0.80661237     0.32700
C2519       C  0.67729852  0.06254191  0.86085686     0.01300
F2520       F  0.66975672  0.13661410  0.84230781    -0.13000
F2521       F  0.67295938  0.99608914  0.79518133    -0.13500
C2522       C  0.72357494  0.09764883  0.87118956     0.16200
C2523       C  0.73620209  0.08523348  0.88868923     0.25600
C2524       C  0.69838455  0.04030657  0.89749434    -0.40600
C2525       C  0.64611125  0.01149640  0.88946115     0.32600
C2526       C  0.63640304  0.02123457  0.87085608     0.14300
F2527       F  0.75700927  0.14293949  0.86379250    -0.13000
F2528       F  0.60512106  0.97306726  0.89933426    -0.13500
F2529       F  0.78626697  0.11509427  0.89626452    -0.15800
F2530       F  0.58706072  0.99094189  0.86273155    -0.14400
F2531       F  0.69423374  0.00374288  0.83422786    -0.14400
F2532       F  0.66030436  0.13672360  0.80304196    -0.15800
C2533       C  0.73237565  0.07338754  0.66978621     0.14300
C2534       C  0.69910547  0.04732517  0.65391104     0.01200
C2535       C  0.64295409  0.02072727  0.65715987     0.16200
C2536       C  0.62174227  0.01761825  0.67605299     0.25600
C2537       C  0.65545341  0.04739350  0.69163018    -0.40700
C2538       C  0.71136530  0.07537736  0.68809006     0.32700
C2539       C  0.72453322  0.04676373  0.63466454     0.01300
F2540       F  0.60823074  0.99889589  0.64218494    -0.13000
F2541       F  0.74578788  0.10706012  0.70193489    -0.13500
C2542       C  0.76032740  0.03094907  0.63374774     0.16200
C2543       C  0.78312831  0.02810544  0.61598961     0.25600
C2544       C  0.77119950  0.04113521  0.59851098    -0.40600
C2545       C  0.73904572  0.06090942  0.59954216     0.32600
C2546       C  0.71551766  0.06325849  0.61741062     0.14300
F2547       F  0.77061410  0.01506192  0.64995881    -0.13000
F2548       F  0.72615539  0.07338766  0.58295914    -0.13500
F2549       F  0.81247542  0.00750980  0.61550401    -0.15800
F2550       F  0.68282369  0.08037379  0.61773076    -0.14400
F2551       F  0.78596456  0.09965483  0.66699242    -0.14400
F2552       F  0.56748573  0.98807084  0.67882757    -0.15800
C2553       C  0.62979497  0.21889838  0.67417766     0.14300
C2554       C  0.58941922  0.22391434  0.66700320     0.01200
C2555       C  0.55379653  0.22517014  0.68060767     0.16200
C2556       C  0.55358072  0.21492116  0.70033928     0.25600
C2557       C  0.59028752  0.20428800  0.70688025    -0.40700
C2558       C  0.63289297  0.21323082  0.69411683     0.32700
C2559       C  0.58358839  0.22702722  0.64549167     0.01300
F2560       F  0.51465857  0.22993918  0.67422585    -0.13000
F2561       F  0.67129596  0.20625181  0.70022281    -0.13500
C2562       C  0.57406952  0.18883779  0.63213030     0.16200
C2563       C  0.56478349  0.19106853  0.61226205     0.25600
C2564       C  0.56670669  0.23231868  0.60515017    -0.40600
C2565       C  0.57900311  0.27128804  0.61836020     0.32600
C2566       C  0.58592411  0.26806040  0.63826575     0.14300
F2567       F  0.57051203  0.14801166  0.63849554    -0.13000
F2568       F  0.57835001  0.31016680  0.61224153    -0.13500
F2569       F  0.55191508  0.15212056  0.60007122    -0.15800
F2570       F  0.59330388  0.30449726  0.65075971    -0.14400
F2571       F  0.66317151  0.21477687  0.66172161    -0.14400
F2572       F  0.51396115  0.20994902  0.71241549    -0.15800
C2573       C  0.95414584  0.24602889  0.86827249     0.14300
C2574       C  0.92337282  0.19453084  0.86418557     0.01200
C2575       C  0.90321325  0.16209600  0.87990211     0.16200
C2576       C  0.91428221  0.18064908  0.89907945     0.25600
C2577       C  0.94753371  0.23176313  0.90296443    -0.40700
C2578       C  0.96540640  0.26435951  0.88753947     0.32700
C2579       C  0.90923065  0.17501965  0.84369345     0.01300
F2580       F  0.87529565  0.11232283  0.87678996    -0.13000
F2581       F  0.99566098  0.31393084  0.89119990    -0.13500
C2582       C  0.94897509  0.19217060  0.82898292     0.16200
C2583       C  0.93571160  0.16958346  0.81036185     0.25600
C2584       C  0.88207551  0.13237351  0.80572869    -0.40600
C2585       C  0.84172979  0.12258228  0.81929777     0.32600
C2586       C  0.85543347  0.13920290  0.83852192     0.14300
F2587       F  0.00144586  0.22695039  0.83310089    -0.13000
F2588       F  0.78909937  0.09160078  0.81446112    -0.13500
F2589       F  0.97575377  0.18210410  0.79727673    -0.15800
F2590       F  0.81639293  0.11755863  0.85216864    -0.14400
F2591       F  0.97124225  0.27857271  0.85365276    -0.14400
F2592       F  0.89629413  0.14858362  0.91390890    -0.15800
C2593       C  0.84319547  0.39853427  0.83101803     0.14300
C2594       C  0.79202710  0.35402167  0.83315342     0.01200
C2595       C  0.76253381  0.33003167  0.81591437     0.16200
C2596       C  0.78091915  0.35250657  0.79775414     0.25600
C2597       C  0.82884216  0.39956194  0.79640764    -0.40700
C2598       C  0.86199402  0.41983360  0.81283988     0.32700
C2599       C  0.77031601  0.33388623  0.85320547     0.01300
F2600       F  0.71190346  0.28909605  0.81685952    -0.13000
F2601       F  0.90901194  0.46483429  0.81189416    -0.13500
C2602       C  0.77751624  0.36558863  0.86933421     0.16200
C2603       C  0.76861522  0.34871476  0.88849924     0.25600
C2604       C  0.75174696  0.29972717  0.89192875    -0.40600
C2605       C  0.73621371  0.26640235  0.87595878     0.32600
C2606       C  0.74553802  0.28325565  0.85688863     0.14300
F2607       F  0.79507985  0.41347776  0.86667978    -0.13000
F2608       F  0.71599119  0.21794903  0.87886075    -0.13500
F2609       F  0.78114067  0.38130811  0.90368608    -0.15800
F2610       F  0.73196964  0.24978004  0.84213825    -0.14400
F2611       F  0.87385121  0.42426444  0.84666547    -0.14400
F2612       F  0.74880745  0.33085746  0.78195076    -0.15800
C2613       C  0.93649498  0.12717691  0.67232945     0.14300
C2614       C  0.91507532  0.15072928  0.66326556     0.01200
C2615       C  0.88786686  0.16759880  0.67463014     0.16200
C2616       C  0.87837049  0.15766786  0.69440928     0.25600
C2617       C  0.89418393  0.12913927  0.70270461    -0.40700
C2618       C  0.92647315  0.11690443  0.69197343     0.32700
C2619       C  0.92384327  0.16041965  0.64228402     0.01300
F2620       F  0.86401057  0.18752839  0.66593968    -0.13000
F2621       F  0.94423530  0.09116482  0.70028729    -0.13500
C2622       C  0.91655191  0.12348834  0.62871264     0.16200
C2623       C  0.93182731  0.13529774  0.60929073     0.25600
C2624       C  0.95235151  0.18344487  0.60339781    -0.40600
C2625       C  0.95339443  0.21818988  0.61626505     0.32600
C2626       C  0.94227647  0.20778935  0.63573402     0.14300
F2627       F  0.89782672  0.07710299  0.63448618    -0.13000
F2628       F  0.47280605  0.26468914  0.61035568    -0.13500
F2629       F  0.93020622  0.10121942  0.59664974    -0.15800
F2630       F  0.95548568  0.24585733  0.64826452    -0.14400
F2631       F  0.96775797  0.11486199  0.66230643    -0.14400
F2632       F  0.84920802  0.17137233  0.70496389    -0.15800
C2633       C  0.78472036  0.34206914  0.67074550     0.14300
C2634       C  0.80852053  0.37119937  0.65405586     0.01200
C2635       C  0.84430098  0.42273042  0.65716102     0.16200
C2636       C  0.85569110  0.44384459  0.67606108     0.25600
C2637       C  0.82804424  0.41495756  0.69243901    -0.40700
C2638       C  0.79309838  0.36363386  0.68952412     0.32700
C2639       C  0.79540453  0.34822292  0.63366426     0.01300
F2640       F  0.86580613  0.45354989  0.64192899    -0.13000
F2641       F  0.76502478  0.33428267  0.70471450    -0.13500
C2642       C  0.74206779  0.30991558  0.62863800     0.16200
C2643       C  0.72927169  0.28866528  0.60977785     0.25600
C2644       C  0.76959310  0.30311148  0.59558754    -0.40600
C2645       C  0.82273481  0.34160930  0.60021127     0.32600
C2646       C  0.83558592  0.36411400  0.61890437     0.14300
F2647       F  0.70145493  0.29386000  0.64182728    -0.13000
F2648       F  0.86282602  0.35594784  0.58676931    -0.13500
F2649       F  0.67773982  0.25208609  0.60556066    -0.15800
F2650       F  0.88822979  0.39900672  0.62277906    -0.14400
F2651       F  0.75410058  0.29220600  0.66912620    -0.14400
F2652       F  0.89097706  0.49360018  0.67824103    -0.15800
O2653       O  0.80878012  0.55919732  0.97652436    -0.79300
O2654       O  0.80894163  0.70642773  0.03705516    -0.64000
O2655       O  0.82515445  0.63184324  0.99811064    -1.10600
C2656       C  0.93448872  0.75848035  0.97050620     1.07600
O2657       O  0.80978546  0.76452153  0.01911364    -0.77200
O2658       O  0.81176107  0.76515757  0.97969409    -0.64800
Ni2659     Ni  0.86364160  0.60312642  0.99652792     1.34900
C2660       C  0.80196461  0.74136894  0.96357782     0.86300
O2661       O  0.79483840  0.60982081  0.03544479    -0.77700
O2662       O  0.81687199  0.56098135  0.01806967    -0.88000
C2663       C  0.79410350  0.73677067  0.03412227     0.85900
O2664       O  0.92233381  0.64881526  0.01540249    -0.66200
O2665       O  0.92074043  0.78769113  0.97849865    -0.85500
C2666       C  0.93034020  0.68514027  0.02664126     0.86800
C2667       C  0.79400297  0.56908829  0.03281479     1.08300
H2668       H  0.88245419  0.72552319  0.00166973     0.40100
O2669       O  0.84549791  0.71417131  0.99979857    -1.08100
O2670       O  0.81458525  0.70929007  0.96036778    -0.64800
Ni2671     Ni  0.82591384  0.67087578  0.97851148     1.26300
O2672       O  0.89470099  0.69598126  0.02817707    -0.65000
O2673       O  0.90340400  0.71019019  0.97138387    -0.77300
C2674       C  0.79051558  0.57096019  0.96217023     0.86100
O2675       O  0.80444913  0.61640718  0.95954561    -0.64500
Ni2676     Ni  0.86435997  0.77736207  0.99883638     1.27400
Ni2677     Ni  0.82104895  0.66675405  0.01870617     1.26100
H2678       H  0.78789524  0.60412146  0.99790428     0.40700
O2679       O  0.72633925  0.66744034  0.51633569    -0.79300
O2680       O  0.88131953  0.67023305  0.46233804    -0.64000
O2681       O  0.77667500  0.62364279  0.50436311    -1.10600
C2682       C  0.94534394  0.70684072  0.53548651     1.07600
O2683       O  0.95388837  0.69064212  0.48062441    -0.77200
O2684       O  0.87197755  0.58278143  0.51732744    -0.64800
Ni2685     Ni  0.71363048  0.61415978  0.49785727     1.34900
C2686       C  0.83575223  0.57311628  0.53013891     0.86300
O2687       O  0.79266633  0.57526711  0.47792846    -0.77700
O2688       O  0.70746431  0.56086542  0.47917568    -0.88000
C2689       C  0.93389115  0.69371160  0.46481896     0.85900
O2690       O  0.73717339  0.66182820  0.47758891    -0.66200
O2691       O  0.95541119  0.68562187  0.52124880    -0.85500
C2692       C  0.78259026  0.70230606  0.47481472     0.86800
C2693       C  0.74081326  0.54722056  0.47399972     1.08300
H2694       H  0.89522982  0.70387632  0.50039054     0.40100
O2695       O  0.87111123  0.66848156  0.50172172    -1.08100
O2696       O  0.82099410  0.60267445  0.53300585    -0.64800
Ni2697     Ni  0.82914304  0.66125417  0.52385996     1.26300
O2698       O  0.82615772  0.70730949  0.48067078    -0.65000
O2699       O  0.89844299  0.70219889  0.53822354    -0.77300
C2700       C  0.77043555  0.70638388  0.52305540     0.86100
O2701       O  0.81825417  0.71447859  0.51938268    -0.64500
Ni2702     Ni  0.91252971  0.64022755  0.49980475     1.27400
Ni2703     Ni  0.82070311  0.64489773  0.48158818     1.26100
H2704       H  0.76521960  0.59055371  0.50759272     0.40700
N2705       N  0.84216266  0.01615833  0.72299580    -0.35000
N2706       N  0.83097273  0.94386481  0.74668445    -0.55600
N2707       N  0.85005263  0.01570668  0.77860515    -0.35000
N2708       N  0.86246999  0.59007372  0.75363806    -0.55600
C2709       C  0.82177158  0.97669482  0.71060543     0.28600
C2710       C  0.83063452  0.54928017  0.71569751     0.28600
C2711       C  0.82859538  0.97199360  0.78747796     0.28600
C2712       C  0.85164776  0.55049642  0.79122496     0.28600
C2713       C  0.84105071  0.92720859  0.72983641     0.37200
C2714       C  0.84169708  0.92447883  0.76135151     0.37200
C2715       C  0.87957059  0.61929037  0.73820662     0.37200
C2716       C  0.88516219  0.62002263  0.76929500     0.37200
C2717       C  0.79679658  0.98260783  0.69541128    -0.20300
C2718       C  0.80002499  0.52874867  0.69910101    -0.20300
C2719       C  0.80955523  0.97499779  0.80571026    -0.20300
C2720       C  0.82739547  0.52630443  0.80839463    -0.20300
C2721       C  0.85818173  0.89644766  0.73378185    -0.21300
C2722       C  0.85850038  0.89472132  0.75393050    -0.21300
C2723       C  0.91209274  0.66857842  0.74386757    -0.21300
C2724       C  0.91483758  0.66902985  0.76383029    -0.21300
C2725       C  0.83298013  0.93989062  0.71140155    -0.16700
C2726       C  0.86402780  0.60026160  0.71937326    -0.16700
C2727       C  0.87538479  0.60194246  0.78817694    -0.16700
C2728       C  0.83382400  0.93252286  0.78110635    -0.16700
H2729       H  0.78131694  0.95962754  0.68258306     0.16200
H2730       H  0.79020145  0.54695786  0.68899817     0.16200
H2731       H  0.79196515  0.94701918  0.81657261     0.16200
H2732       H  0.82165166  0.54072156  0.82195254     0.16200
H2733       H  0.86998161  0.87812113  0.72332906     0.14500
H2734       H  0.87141204  0.87553298  0.76225562     0.14500
H2735       H  0.93069774  0.70049819  0.73471888     0.14500
H2736       H  0.93673741  0.70160523  0.77300677     0.14500
H2737       H  0.87175006  0.02611658  0.73333826     0.27800
H2738       H  0.87346891  0.02586384  0.76594876     0.27800
N2739       N  0.59524575  0.60438494  0.72266022    -0.35000
N2740       N  0.62079588  0.54975134  0.74537657    -0.55600
N2741       N  0.57376549  0.57836204  0.77625982    -0.35000
N2742       N  0.54979958  0.63609239  0.75484048    -0.55600
C2743       C  0.59969147  0.57625209  0.70851578     0.28600
C2744       C  0.57023370  0.62418543  0.71488985     0.28600
C2745       C  0.58146187  0.54465397  0.78329322     0.28600
C2746       C  0.54005479  0.58220754  0.78863028     0.28600
C2747       C  0.64658126  0.54985988  0.72885569     0.37200
C2748       C  0.64800657  0.54931332  0.76073237     0.37200
C2749       C  0.56826742  0.67356806  0.74241911     0.37200
C2750       C  0.55113230  0.65405503  0.77308660     0.37200
C2751       C  0.57640873  0.57864067  0.69161172    -0.20300
C2752       C  0.55633838  0.60704718  0.69587763    -0.20300
C2753       C  0.54912856  0.52361379  0.79956293    -0.20300
C2754       C  0.52320610  0.54753270  0.80304911    -0.20300
C2755       C  0.68873620  0.54516292  0.73378665    -0.21300
C2756       C  0.69094117  0.54690965  0.75404808    -0.21300
C2757       C  0.57915226  0.71581491  0.75262385    -0.21300
C2758       C  0.56858105  0.70353309  0.77215620    -0.21300
C2759       C  0.63177397  0.55594891  0.71002471    -0.16700
C2760       C  0.57575459  0.66807212  0.72223847    -0.16700
C2761       C  0.53909079  0.62530657  0.79001959    -0.16700
C2762       C  0.63060151  0.54880887  0.78022174    -0.16700
H2763       H  0.57728129  0.56617945  0.67695411     0.16200
H2764       H  0.53981860  0.61908615  0.68535969     0.16200
H2765       H  0.55043707  0.49912006  0.80945361     0.16200
H2766       H  0.50054356  0.54371623  0.81616684     0.16200
H2767       H  0.71593045  0.54176177  0.72410347     0.14500
H2768       H  0.71959873  0.54502195  0.76269156     0.14500
H2769       H  0.59492010  0.75189884  0.74676748     0.14500
H2770       H  0.57559220  0.72882862  0.78422906     0.14500
H2771       H  0.61783827  0.61815364  0.73534989     0.27800
H2772       H  0.60144016  0.60601770  0.76701253     0.27800
N2773       N  0.98347036  0.81363063  0.76923338    -0.35000
N2774       N  0.56819827  0.85296134  0.74117712    -0.55600
N2775       N  0.97746075  0.82342446  0.71583352    -0.35000
N2776       N  0.89340496  0.78180120  0.74366042    -0.55600
C2777       C  0.52477133  0.81805389  0.77905179     0.28600
C2778       C  0.93862869  0.78683164  0.78022815     0.28600
C2779       C  0.51890453  0.82928951  0.70469550     0.28600
C2780       C  0.93193891  0.79369626  0.70538151     0.28600
C2781       C  0.59857342  0.87473083  0.75716956     0.37200
C2782       C  0.59566082  0.88122237  0.72586029     0.37200
C2783       C  0.86911124  0.78232621  0.76022936     0.37200
C2784       C  0.86364058  0.78089216  0.72919771     0.37200
C2785       C  0.50523683  0.79154370  0.79598901    -0.20300
C2786       C  0.95106177  0.77277526  0.79694568    -0.20300
C2787       C  0.49904109  0.80148147  0.68767247    -0.20300
C2788       C  0.94487247  0.78042933  0.68795793    -0.20300
C2789       C  0.64763499  0.91680034  0.75197539    -0.21300
C2790       C  0.64573473  0.92100314  0.73195637    -0.21300
C2791       C  0.82123144  0.77842768  0.75649418    -0.21300
C2792       C  0.81750191  0.77713673  0.73645277    -0.21300
C2793       C  0.57955069  0.85610031  0.77600410    -0.16700
C2794       C  0.89190853  0.78736761  0.77825371    -0.16700
C2795       C  0.88028912  0.78426689  0.70985236    -0.16700
C2796       C  0.57337055  0.86896600  0.70695203    -0.16700
H2797       H  0.52885180  0.79080314  0.80747678     0.16200
H2798       H  0.92455623  0.75432016  0.80922586     0.16200
H2799       H  0.52223348  0.80334026  0.67497611     0.16200
H2800       H  0.91890070  0.76311386  0.67575904     0.16200
H2801       H  0.68047406  0.94220325  0.76157152     0.14500
H2802       H  0.67691798  0.95024044  0.72309966     0.14500
H2803       H  0.79304089  0.77790288  0.76701165     0.14500
H2804       H  0.78605870  0.77574252  0.72828063     0.14500
H2805       H  0.98737176  0.83696697  0.75843733     0.27800
H2806       H  0.98123071  0.84634138  0.72761878     0.27800
C2807       C  0.98472516  0.72692656  0.55220826     0.03900
C2808       C  0.54415864  0.75717276  0.55245835     0.03900
C2809       C  0.56978856  0.75743179  0.56991182    -0.16700
C2810       C  0.54002667  0.73003897  0.58630198     0.03900
C2811       C  0.98349566  0.70349422  0.58554186     0.03900
C2812       C  0.95721031  0.70286728  0.56922545    -0.16700
H2813       H  0.91332077  0.68114813  0.56985812     0.05900
H2814       H  0.61341955  0.77962721  0.57101570     0.05900
C2815       C  0.78390607  0.97748901  0.54298087     0.03900
C2816       C  0.81285936  0.53204402  0.54512518     0.03900
C2817       C  0.81052085  0.55078545  0.56419596    -0.16700
C2818       C  0.77704934  0.52022975  0.57924125     0.03900
C2819       C  0.74863167  0.96880965  0.57641677     0.03900
C2820       C  0.75506541  0.94867208  0.55926337    -0.16700
H2821       H  0.73239218  0.90846415  0.55812293     0.05900
H2822       H  0.83195868  0.59038570  0.56706826     0.05900
C2823       C  0.78439730  0.75724282  0.94676006     0.03900
C2824       C  0.74565502  0.77119403  0.94618363     0.03900
C2825       C  0.73564583  0.78375234  0.92792903    -0.16700
C2826       C  0.76776382  0.79080974  0.91164203     0.03900
C2827       C  0.81023422  0.78397510  0.91334764     0.03900
C2828       C  0.81522501  0.76406748  0.92995731    -0.16700
H2829       H  0.84598877  0.75611130  0.92993799     0.05900
H2830       H  0.70373060  0.79021484  0.92644454     0.05900
C2831       C  0.76343736  0.73141577  0.54068857     0.03900
C2832       C  0.74338092  0.76345398  0.54206634     0.03900
C2833       C  0.74243302  0.78355092  0.56067428    -0.16700
C2834       C  0.75709668  0.77108916  0.57750709     0.03900
C2835       C  0.76647231  0.73303883  0.57633664     0.03900
C2836       C  0.77121026  0.71487835  0.55817830    -0.16700
H2837       H  0.78140781  0.68740756  0.55772782     0.05900
H2838       H  0.73425043  0.81235422  0.56193600     0.05900
C2839       C  0.72997925  0.97902328  0.94630988     0.03900
C2840       C  0.75298418  0.53189411  0.94696166     0.03900
C2841       C  0.74100658  0.55024878  0.93074275    -0.16700
C2842       C  0.71728917  0.52160990  0.91365674     0.03900
C2843       C  0.70634081  0.97411034  0.91189879     0.03900
C2844       C  0.71253678  0.95318473  0.92815303    -0.16700
H2845       H  0.70033380  0.91488420  0.92678042     0.05900
H2846       H  0.75039471  0.58763434  0.93121101     0.05900
C2847       C  0.53251291  0.78390184  0.95778137     0.03900
C2848       C  0.98070238  0.77858282  0.95566054     0.03900
C2849       C  0.95813135  0.76543364  0.93682307    -0.16700
C2850       C  0.97604557  0.74651090  0.92209808     0.03900
C2851       C  0.51928650  0.74170337  0.92547313     0.03900
C2852       C  0.54652994  0.75999054  0.94309497    -0.16700
H2853       H  0.58225179  0.75904358  0.94431916     0.05900
H2854       H  0.92155209  0.76375279  0.93424843     0.05900
O2855       O  0.56141643  0.79449244  0.52075347    -0.79300
O2856       O  0.69604088  0.77503700  0.48248308    -0.64000
O2857       O  0.64370335  0.81878999  0.49951456    -1.10600
C2858       C  0.77134022  0.94219534  0.52584877     1.07600
O2859       O  0.78836209  0.82263380  0.48393134    -0.77200
O2860       O  0.78368824  0.83277908  0.52269358    -0.64800
Ni2861     Ni  0.60088051  0.84566294  0.50152605     1.34900
C2862       C  0.73991970  0.79148565  0.52613273     0.86300
O2863       O  0.61785773  0.78677825  0.46250924    -0.77700
O2864       O  0.55887502  0.80042298  0.47955430    -0.88000
C2865       C  0.74316644  0.78249770  0.47840773     0.85900
O2866       O  0.64035977  0.90422573  0.48430794    -0.66200
O2867       O  0.80700938  0.93126058  0.52042311    -0.85500
C2868       C  0.67772054  0.91496739  0.47185467     0.86800
C2869       C  0.57034906  0.78067974  0.46505097     1.08300
H2870       H  0.74880951  0.89814423  0.49318507     0.40100
O2871       O  0.73807862  0.86542068  0.49658937    -1.08100
O2872       O  0.69450778  0.78348627  0.52063070    -0.64800
Ni2873     Ni  0.69512275  0.84363971  0.51943182     1.26300
O2874       O  0.69277759  0.88572889  0.46910688    -0.65000
O2875       O  0.71952806  0.91218816  0.52205461    -0.77300
C2876       C  0.58205779  0.79095897  0.53638456     0.86100
O2877       O  0.63473313  0.81632982  0.53900803    -0.64500
Ni2878     Ni  0.80239541  0.87779212  0.50192003     1.27400
Ni2879     Ni  0.68583588  0.82768149  0.47746289     1.26100
H2880       H  0.62053325  0.78329065  0.50074906     0.40700
O2881       O  0.70200751  0.75220984  0.97810945    -0.79300
O2882       O  0.70012931  0.90053540  0.03722805    -0.64000
O2883       O  0.67124886  0.80521849  0.99745490    -1.10600
C2884       C  0.71220113  0.94486698  0.96327649     1.07600
O2885       O  0.69176845  0.95457118  0.01949684    -0.77200
O2886       O  0.58329951  0.85591767  0.98142628    -0.64800
Ni2887     Ni  0.64893156  0.74106116  0.99868939     1.34900
C2888       C  0.58117063  0.82176221  0.97046561     0.86300
O2889       O  0.60696641  0.80735395  0.02404232    -0.77700
O2890       O  0.59210825  0.73067523  0.01876674    -0.88000
C2891       C  0.70865630  0.94415000  0.03468228     0.85900
O2892       O  0.70159316  0.75459325  0.01823503    -0.66200
O2893       O  0.68492655  0.94952700  0.97743754    -0.85500
C2894       C  0.71155802  0.77960254  0.03416402     0.86800
C2895       C  0.57703901  0.75946364  0.02591711     1.08300
H2896       H  0.72239427  0.91546680  0.99920025     0.40100
O2897       O  0.68627689  0.88592120  0.99855176    -1.08100
O2898       O  0.62261155  0.81955336  0.96830032    -0.64800
Ni2899     Ni  0.69468907  0.85230528  0.97837833     1.26300
O2900       O  0.69684808  0.81036621  0.03708384    -0.65000
O2901       O  0.71774309  0.90758876  0.96128441    -0.77300
C2902       C  0.71771838  0.77945174  0.96290483     0.86100
O2903       O  0.70916551  0.81409381  0.96036265    -0.64500
Ni2904     Ni  0.64050193  0.90714808  0.99943143     1.27400
Ni2905     Ni  0.68521225  0.84767708  0.01845230     1.26100
H2906       H  0.63424116  0.79291236  0.99524692     0.40700
N2907       N  0.51278605  0.69316850  0.23133744    -0.35000
N2908       N  0.92178639  0.63438020  0.25638469    -0.55600
N2909       N  0.50323432  0.65650234  0.28416016    -0.35000
N2910       N  0.59435754  0.71686439  0.25907775    -0.55600
C2911       C  0.97060691  0.68529388  0.22100519     0.28600
C2912       C  0.55830328  0.72841212  0.22226253     0.28600
C2913       C  0.95850433  0.64018503  0.29532047     0.28600
C2914       C  0.54577051  0.68343075  0.29623684     0.28600
C2915       C  0.89459865  0.61891886  0.23946117     0.37200
C2916       C  0.88831364  0.60362228  0.27023480     0.37200
C2917       C  0.62578221  0.72999968  0.24302855     0.37200
C2918       C  0.62120474  0.71219412  0.27334531     0.37200
C2919       C  0.98953860  0.71748346  0.20566602    -0.20300
C2920       C  0.54478308  0.74447057  0.20639210    -0.20300
C2921       C  0.97321611  0.65699362  0.31431014    -0.20300
C2922       C  0.52775737  0.68537232  0.31478520    -0.20300
C2923       C  0.84200681  0.57938804  0.24280040    -0.21300
C2924       C  0.83768695  0.57047346  0.26251343    -0.21300
C2925       C  0.67456146  0.73606491  0.24726030    -0.21300
C2926       C  0.67170610  0.72499510  0.26671811    -0.21300
C2927       C  0.91878481  0.64093393  0.22149566    -0.16700
C2928       C  0.60971659  0.73675384  0.22499679    -0.16700
C2929       C  0.59913385  0.69743584  0.29211749    -0.16700
C2930       C  0.90464254  0.60598126  0.28952837    -0.16700
H2931       H  0.96609320  0.71741841  0.19391796     0.16200
H2932       H  0.57162224  0.76906375  0.19527254     0.16200
H2933       H  0.94738498  0.64702171  0.32697488     0.16200
H2934       H  0.55151158  0.70224455  0.32780198     0.16200
H2935       H  0.81036699  0.55773967  0.23232089     0.14500
H2936       H  0.80230665  0.54142438  0.27003606     0.14500
H2937       H  0.70863838  0.74788402  0.23752050     0.14500
H2938       H  0.70291574  0.72650229  0.27505167     0.14500
H2939       H  0.51076692  0.66795376  0.24076797     0.27800
H2940       H  0.50431215  0.64262508  0.27035348     0.27800
N2941       N  0.85898060  0.85008603  0.27749699    -0.35000
N2942       N  0.88489117  0.80536329  0.24716098    -0.55600
N2943       N  0.86215226  0.86118906  0.22170754    -0.35000
N2944       N  0.83263308  0.90357651  0.25285073    -0.55600
C2945       C  0.85865119  0.81331492  0.28619013     0.28600
C2946       C  0.83047957  0.86219336  0.28920157     0.28600
C2947       C  0.86273303  0.82787829  0.20938761     0.28600
C2948       C  0.83849285  0.88001098  0.21210471     0.28600
C2949       C  0.90599566  0.79471057  0.26174798     0.37200
C2950       C  0.90396500  0.79755558  0.23044227     0.37200
C2951       C  0.83840588  0.92784135  0.27003496     0.37200
C2952       C  0.83996864  0.93411308  0.23851764     0.37200
C2953       C  0.82791292  0.80071147  0.30304265    -0.20300
C2954       C  0.81014818  0.83148500  0.30493886    -0.20300
C2955       C  0.83818775  0.82469619  0.19208992    -0.20300
C2956       C  0.82318072  0.85758058  0.19380735    -0.20300
C2957       C  0.93706483  0.77799073  0.25425139    -0.21300
C2958       C  0.93492360  0.77906447  0.23428154    -0.21300
C2959       C  0.84901366  0.97416949  0.26667406    -0.21300
C2960       C  0.85013499  0.97805899  0.24657455    -0.21300
C2961       C  0.89479953  0.79915706  0.28144266    -0.16700
C2962       C  0.83333725  0.90686562  0.28830828    -0.16700
C2963       C  0.83694238  0.92133213  0.21841868    -0.16700
C2964       C  0.89254231  0.80652781  0.21196801    -0.16700
H2965       H  0.82330371  0.77567797  0.31381032     0.16200
H2966       H  0.78985031  0.83482624  0.31755651     0.16200
H2967       H  0.83541949  0.80382713  0.17899204     0.16200
H2968       H  0.80689812  0.86680414  0.18228075     0.23800
H2969       H  0.95830085  0.76567613  0.26212733     0.14500
H2970       H  0.95379458  0.76762677  0.22376801     0.14500
H2971       H  0.85657399  0.00223322  0.27754306     0.14500
H2972       H  0.85994191  0.00983782  0.23855517     0.14500
H2973       H  0.88633352  0.87242728  0.26677196     0.27800
H2974       H  0.88470672  0.87617639  0.23435747     0.27800
C2975       C  0.72437995  0.50940054  0.45739199     0.03900
C2976       C  0.70077579  0.95539503  0.45655426     0.03900
C2977       C  0.70547700  0.93524469  0.43825544    -0.16700
C2978       C  0.73587765  0.96420739  0.42272591     0.03900
C2979       C  0.74761779  0.51248011  0.42237025     0.03900
C2980       C  0.74265980  0.53463215  0.43947396    -0.16700
H2981       H  0.75707619  0.57351807  0.43904997     0.05900
H2982       H  0.68870292  0.89597426  0.43622238     0.05900
N2983       N  0.63703574  0.51037416  0.22025619    -0.35000
N2984       N  0.61487770  0.93451342  0.24508140    -0.55600
N2985       N  0.66185708  0.51097126  0.27483629    -0.35000
N2986       N  0.67979698  0.58945720  0.25231476    -0.55600
C2987       C  0.59497566  0.97202569  0.21398542     0.28600
C2988       C  0.63068584  0.54784028  0.21806701     0.28600
C2989       C  0.65820909  0.97219106  0.28330455     0.28600
C2990       C  0.69049951  0.55012758  0.28743047     0.28600
C2991       C  0.59361956  0.90661287  0.22857647     0.37200
C2992       C  0.60003221  0.90405692  0.26012223     0.37200
C2993       C  0.69781428  0.61754877  0.23650496     0.37200
C2994       C  0.70488447  0.61846512  0.26794040     0.37200
C2995       C  0.55724497  0.98299706  0.20998170    -0.20300
C2996       C  0.57989964  0.53060504  0.21107977    -0.20300
C2997       C  0.68934255  0.98739385  0.29991127    -0.20300
C2998       C  0.70667672  0.53555530  0.30281656    -0.20300
C2999       C  0.56600898  0.85722643  0.23305467    -0.21300
C3000       C  0.56895381  0.85549365  0.25312483    -0.21300
C3001       C  0.73686400  0.66597524  0.24196914    -0.21300
C3002       C  0.73924862  0.66702667  0.26212386    -0.21300
C3003       C  0.58931643  0.92644677  0.21117767    -0.16700
C3004       C  0.67446471  0.59690598  0.21821646    -0.16700
C3005       C  0.70125114  0.59854211  0.28623891    -0.16700
C3006       C  0.61676683  0.92182681  0.27952675    -0.16700
H3007       H  0.51641703  0.95773438  0.20489862     0.16200
H3008       H  0.56424267  0.55242680  0.20721953     0.16200
H3009       H  0.69254611  0.96424782  0.30989308     0.16200
H3010       H  0.72368576  0.55574241  0.31613176     0.16200
H3011       H  0.54320279  0.82604814  0.22312922     0.14500
H3012       H  0.55020436  0.82222890  0.26132745     0.14500
H3013       H  0.76123843  0.69747702  0.23291202     0.14500
H3014       H  0.76541150  0.69981094  0.27087334     0.14500
H3015       H  0.67303855  0.51371014  0.22370004     0.27800
H3016       H  0.63673034  0.50816663  0.26389001     0.27800
C3017       C  0.77524871  0.53530842  0.04995603     0.03900
C3018       C  0.73771849  0.98193953  0.05109855     0.03900
C3019       C  0.72968741  0.96051261  0.06975372    -0.16700
C3020       C  0.75771318  0.98856430  0.08637650     0.03900
C3021       C  0.79738564  0.53931852  0.08432346     0.03900
C3022       C  0.80294689  0.56204115  0.06693950    -0.16700
H3023       H  0.83197683  0.60169621  0.06655187     0.05900
H3024       H  0.70175728  0.92101498  0.07147123     0.05900
C3025       C  0.74555833  0.75144368  0.46217222     0.03900
C3026       C  0.78243543  0.73550480  0.46030245     0.03900
C3027       C  0.79516016  0.72627732  0.44121739    -0.16700
C3028       C  0.76719071  0.72550324  0.42487129     0.03900
C3029       C  0.72571774  0.73420131  0.42752966     0.03900
C3030       C  0.71672455  0.74845029  0.44572212    -0.16700
H3031       H  0.68767960  0.75886155  0.44682246     0.05900
H3032       H  0.82229206  0.71381322  0.43925875     0.05900
C3033       C  0.76038951  0.74080743  0.05026129     0.03900
C3034       C  0.73364163  0.76759014  0.05099521     0.03900
C3035       C  0.71757346  0.77630312  0.06953204    -0.16700
C3036       C  0.71975558  0.75428157  0.08615113     0.03900
C3037       C  0.73655196  0.72161803  0.08456967     0.03900
C3038       C  0.75763038  0.71629334  0.06724469    -0.16700
H3039       H  0.77356282  0.69324619  0.06763661     0.05900
H3040       H  0.70015279  0.79816115  0.07111693     0.05900
C3041       C  0.53097607  0.75825539  0.44815146     0.03900
C3042       C  0.97174974  0.72355211  0.44809395     0.03900
C3043       C  0.94487426  0.71460330  0.43010306    -0.16700
C3044       C  0.97206982  0.73900876  0.41318248     0.03900
C3045       C  0.52814370  0.77374236  0.41353484     0.03900
C3046       C  0.55678917  0.78153326  0.43048490    -0.16700
H3047       H  0.59996394  0.80916711  0.43011674     0.05900
H3048       H  0.90160215  0.68834647  0.42897540     0.05900
C3049       C  0.53428435  0.74181446  0.04204428     0.03900
C3050       C  0.97437725  0.70986434  0.04247382     0.03900
C3051       C  0.94918137  0.70516659  0.06101611    -0.16700
C3052       C  0.97726302  0.73248666  0.07770036     0.03900
C3053       C  0.53371581  0.76424080  0.07699357     0.03900
C3054       C  0.56095658  0.76665983  0.05976911    -0.16700
H3055       H  0.60476528  0.79081181  0.06013708     0.05900
H3056       H  0.90556440  0.68199324  0.06240375     0.05900
C3057       C  0.58854701  0.80941686  0.36307122     0.14300
C3058       C  0.57379453  0.84253731  0.35783058     0.01200
C3059       C  0.55296930  0.85856001  0.37323107     0.16200
C3060       C  0.54511560  0.84075169  0.39204679     0.25600
C3061       C  0.55534922  0.80494246  0.39629428    -0.40700
C3062       C  0.57891128  0.79082267  0.38192334     0.32700
C3063       C  0.57851421  0.85880655  0.33679665     0.01300
F3064       F  0.53548769  0.88848669  0.37046243    -0.13000
F3065       F  0.58719374  0.75483843  0.38565751    -0.13500
C3066       C  0.57721648  0.82999463  0.32030878     0.16200
C3067       C  0.58900430  0.84867388  0.30138378     0.25600
C3068       C  0.59074176  0.89170593  0.29755086    -0.40600
C3069       C  0.58030788  0.91462334  0.31337983     0.32600
C3070       C  0.58311942  0.90333338  0.33253076     0.14300
F3071       F  0.56432584  0.78350673  0.32198859    -0.13000
F3072       F  0.57749547  0.95438425  0.31046020    -0.13500
F3073       F  0.60137967  0.82575544  0.28734869    -0.15800
F3074       F  0.59592872  0.93918871  0.34630235    -0.14400
F3075       F  0.61329509  0.79496726  0.35030590    -0.14400
F3076       F  0.02238372  0.85517427  0.40584564    -0.15800
C3077       C  0.60974950  0.85919238  0.16740579     0.14300
C3078       C  0.59483456  0.87382979  0.15104425     0.01200
C3079       C  0.58285219  0.90990004  0.15466947     0.16200
C3080       C  0.58041769  0.92616785  0.17365466     0.25600
C3081       C  0.58884439  0.90673874  0.19042456    -0.40700
C3082       C  0.60553159  0.87395754  0.18657244     0.32700
C3083       C  0.58926228  0.84941005  0.13096456     0.01300
F3084       F  0.56924154  0.92801629  0.14015896    -0.13000
F3085       F  0.62538338  0.86122585  0.20097702    -0.13500
C3086       C  0.57395873  0.79948082  0.12934513     0.16200
C3087       C  0.56575971  0.77537241  0.11119512     0.25600
C3088       C  0.56392392  0.79668726  0.09426539    -0.40600
C3089       C  0.58053301  0.84637719  0.09524435     0.32600
C3090       C  0.59534869  0.87308753  0.11313322     0.14300
F3091       F  0.56059904  0.77124544  0.14520969    -0.13000
F3092       F  0.57977057  0.86845606  0.07899313    -0.13500
F3093       F  0.55236215  0.72818208  0.11040812    -0.15800
F3094       F  0.61451867  0.92169566  0.11251849    -0.14400
F3095       F  0.63337343  0.83383963  0.16482218    -0.14400
F3096       F  0.56939544  0.96140846  0.17481585    -0.15800
C3097       C  0.77434828  0.68507714  0.32968118     0.14300
C3098       C  0.73643456  0.66090812  0.34467627     0.01200
C3099       C  0.68511918  0.61945694  0.33951800     0.16200
C3100       C  0.67211486  0.60424417  0.32001222     0.25600
C3101       C  0.71129031  0.62701312  0.30514163    -0.40700
C3102       C  0.76237045  0.66815327  0.31024680     0.32700
C3103       C  0.75241322  0.67830108  0.36543350     0.01300
F3104       F  0.64806525  0.59134610  0.35318425    -0.13000
F3105       F  0.80257581  0.68870437  0.29693775    -0.13500
C3106       C  0.77887992  0.72897542  0.37061606     0.16200
C3107       C  0.79158754  0.74542112  0.39003071     0.25600
C3108       C  0.77666720  0.71163553  0.40491923    -0.40600
C3109       C  0.75477333  0.66170521  0.39973071     0.32600
C3110       C  0.74239019  0.64518907  0.38019887     0.14300
F3111       F  0.78992339  0.76269679  0.35706607    -0.13000
F3112       F  0.74011022  0.62812681  0.41376622    -0.13500
F3113       F  0.81378991  0.79409659  0.39458114    -0.15800
F3114       F  0.71822170  0.59640532  0.37589392    -0.14400
F3115       F  0.82541804  0.72140125  0.33433289    -0.14400
F3116       F  0.62243373  0.56354461  0.31580047    -0.15800
C3117       C  0.72966799  0.68332868  0.17530423     0.14300
C3118       C  0.72340463  0.65034465  0.16007289     0.01200
C3119       C  0.70771956  0.60254604  0.16444200     0.16200
C3120       C  0.69755855  0.58759220  0.18357429     0.25600
C3121       C  0.69788320  0.61860784  0.19883911    -0.40700
C3122       C  0.71452028  0.66700371  0.19437133     0.32700
C3123       C  0.72985981  0.66450506  0.13955384     0.01300
F3124       F  0.70212532  0.56994101  0.15010291    -0.13000
F3125       F  0.71164002  0.69717843  0.20779532    -0.13500
C3126       C  0.77742370  0.70757121  0.13323876     0.16200
C3127       C  0.78140592  0.72299603  0.11430829     0.25600
C3128       C  0.73763303  0.69678140  0.10177407    -0.40600
C3129       C  0.69162406  0.65181164  0.10736994     0.32600
C3130       C  0.68748746  0.63576242  0.12626084     0.14300
F3131       F  0.81868904  0.73594138  0.14567248    -0.13000
F3132       F  0.64954743  0.62537053  0.09497263    -0.13500
F3133       F  0.82572220  0.76611746  0.10854608    -0.15800
F3134       F  0.64070382  0.59411508  0.13193650    -0.14400
F3135       F  0.74627469  0.73030183  0.17146171    -0.14400
F3136       F  0.68612243  0.54178814  0.18683609    -0.15800
C3137       C  0.92184911  0.73641728  0.32016816     0.14300
C3138       C  0.93673581  0.77061578  0.33592301     0.01200
C3139       C  0.94859065  0.81789845  0.33188484     0.16200
C3140       C  0.94252092  0.82906849  0.31314658     0.25600
C3141       C  0.92160995  0.79268034  0.29805679    -0.40700
C3142       C  0.91556011  0.74749236  0.30136384     0.32700
C3143       C  0.93606187  0.75490594  0.35630956     0.01300
F3144       F  0.96339367  0.85307766  0.34604737    -0.13000
F3145       F  0.89716783  0.71163569  0.28716605    -0.13500
C3146       C  0.95739874  0.72656445  0.35993800     0.16200
C3147       C  0.95786820  0.71172510  0.37862420     0.25600
C3148       C  0.94286741  0.72974282  0.39465089    -0.40600
C3149       C  0.91824699  0.75535562  0.39133110     0.32600
C3150       C  0.91464646  0.76767439  0.37230823     0.14300
F3151       F  0.98595863  0.72005202  0.34601850    -0.13000
F3152       F  0.90419163  0.77388359  0.40665417    -0.13500
F3153       F  0.98334593  0.68824577  0.38147551    -0.15800
F3154       F  0.89411958  0.79538937  0.36984084    -0.14400
F3155       F  0.90448580  0.68937139  0.32364438    -0.14400
F3156       F  0.95217519  0.87445336  0.31013999    -0.15800
C3157       C  0.89927190  0.73228571  0.16989411     0.14300
C3158       C  0.92800619  0.76844285  0.15565201     0.01200
C3159       C  0.95009333  0.81814184  0.16153149     0.16200
C3160       C  0.94335596  0.83072571  0.18054560     0.25600
C3161       C  0.91199340  0.79390154  0.19405736    -0.40700
C3162       C  0.89035366  0.74461682  0.18863793     0.32700
C3163       C  0.93229551  0.75410983  0.13480658     0.01300
F3164       F  0.97589602  0.85491390  0.14878230    -0.13000
F3165       F  0.85710343  0.70804083  0.20101626    -0.13500
C3166       C  0.92883487  0.77865150  0.11887008     0.16200
C3167       C  0.93769125  0.76786146  0.09973291     0.25600
C3168       C  0.94774018  0.73087781  0.09586159    -0.40600
C3169       C  0.94428310  0.70213739  0.11119777     0.32600
C3170       C  0.94043308  0.71568571  0.13050150     0.14300
F3171       F  0.91843013  0.81427097  0.12156932    -0.13000
F3172       F  0.45271375  0.66544124  0.10763650    -0.13500
F3173       F  0.93984418  0.79571332  0.08504903    -0.15800
F3174       F  0.95113657  0.69496857  0.14486751    -0.14400
F3175       F  0.87592699  0.68418582  0.16553520    -0.14400
F3176       F  0.96273346  0.87873681  0.18524180    -0.15800
C3177       C  0.73218269  0.90824722  0.37337033     0.14300
C3178       C  0.78745453  0.93360695  0.36845998     0.01200
C3179       C  0.82493552  0.95960994  0.38371879     0.16200
C3180       C  0.80706965  0.96339525  0.40245503     0.25600
C3181       C  0.75206481  0.94359497  0.40618175    -0.40700
C3182       C  0.71471536  0.91364497  0.39186561     0.32700
C3183       C  0.80428961  0.93414752  0.34741486     0.01300
F3184       F  0.87899607  0.98511821  0.38048632    -0.13000
F3185       F  0.66167114  0.89413471  0.39522409    -0.13500
C3186       C  0.77527309  0.93723515  0.33205866     0.16200
C3187       C  0.78698203  0.93252773  0.31245734     0.25600
C3188       C  0.83115103  0.92941824  0.30752228    -0.40600
C3189       C  0.86488158  0.93376656  0.32264956     0.32600
C3190       C  0.84966045  0.93254187  0.34222326     0.14300
F3191       F  0.73561005  0.94525638  0.33588280    -0.13000
F3192       F  0.90917291  0.93265225  0.31835562    -0.13500
F3193       F  0.75338328  0.92829244  0.29840408    -0.15800
F3194       F  0.87771346  0.92664901  0.35582825    -0.14400
F3195       F  0.69486162  0.87975671  0.35982746    -0.14400
F3196       F  0.84405126  0.99069109  0.41651913    -0.15800
C3197       C  0.76271233  0.94844622  0.18277087     0.14300
C3198       C  0.79442850  0.95752708  0.16562709     0.01200
C3199       C  0.84728530  0.96859632  0.16842669     0.16200
C3200       C  0.86476778  0.96557555  0.18677851     0.25600
C3201       C  0.82930514  0.94848163  0.20288553    -0.40700
C3202       C  0.77960890  0.94350604  0.20100519     0.32700
C3203       C  0.77342874  0.95503761  0.14515143     0.01300
F3204       F  0.88218551  0.98014103  0.15335596    -0.13000
F3205       F  0.74522469  0.92971696  0.21648176    -0.13500
C3206       C  0.74096977  0.97334386  0.14109363     0.16200
C3207       C  0.73098690  0.97927653  0.12187496     0.25600
C3208       C  0.75093477  0.96554719  0.10584398    -0.40600
C3209       C  0.77667290  0.94107257  0.10959843     0.32600
C3210       C  0.78759956  0.93576294  0.12889185     0.14300
F3211       F  0.72100059  0.98880509  0.15538126    -0.13000
F3212       F  0.79594628  0.92651703  0.09453803    -0.13500
F3213       F  0.70607040  0.00321627  0.11893590    -0.15800
F3214       F  0.81326657  0.91248743  0.13150729    -0.14400
F3215       F  0.71319933  0.94019627  0.18199767    -0.14400
F3216       F  0.91443211  0.97327850  0.18826078    -0.15800
C3217       C  0.75214486  0.53005045  0.36870857     0.14300
C3218       C  0.80817656  0.55803187  0.36512767     0.01200
C3219       C  0.84338893  0.57819373  0.38104781     0.16200
C3220       C  0.82324900  0.56969231  0.40019715     0.25600
C3221       C  0.76744005  0.53880209  0.40371857    -0.40700
C3222       C  0.73200749  0.52032500  0.38780298     0.32700
C3223       C  0.82911841  0.56528520  0.34475255     0.01300
F3224       F  0.89733899  0.60336561  0.37804631    -0.13000
F3225       F  0.67789859  0.48929395  0.39075650    -0.13500
C3226       C  0.81443581  0.58746683  0.33159781     0.16200
C3227       C  0.83118500  0.59260338  0.31203327     0.25600
C3228       C  0.86555502  0.57796592  0.30555102    -0.40600
C3229       C  0.87874937  0.55377725  0.31861036     0.32600
C3230       C  0.86333289  0.55029581  0.33824134     0.14300
F3231       F  0.78838023  0.60864729  0.33839453    -0.13000
F3232       F  0.91480033  0.54200374  0.31315391    -0.13500
F3233       F  0.82018407  0.61807336  0.30007648    -0.15800
F3234       F  0.88549388  0.53606272  0.35107741    -0.14400
F3235       F  0.71679721  0.51003646  0.35370451    -0.14400
F3236       F  0.85834704  0.58657363  0.41523689    -0.15800
C3237       C  0.88270180  0.56826252  0.12719828     0.14300
C3238       C  0.86119436  0.58820389  0.14034628     0.01200
C3239       C  0.82924342  0.60355479  0.13230450     0.16200
C3240       C  0.81497748  0.59439918  0.11276755     0.25600
C3241       C  0.83124796  0.56909890  0.10086485    -0.40700
C3242       C  0.86861121  0.55984416  0.10763287     0.32700
C3243       C  0.87189691  0.59298529  0.16192482     0.01300
F3244       F  0.80963386  0.62610750  0.14304219    -0.13000
F3245       F  0.88268540  0.03564588  0.09508627    -0.13500
C3246       C  0.92232842  0.60588010  0.16902552     0.16200
C3247       C  0.93242633  0.61236138  0.18893399     0.25600
C3248       C  0.89689086  0.61524780  0.20217942    -0.40600
C3249       C  0.84632199  0.60173082  0.19542597     0.32600
C3250       C  0.83278651  0.58723520  0.17586760     0.14300
F3251       F  0.96449088  0.61749044  0.15694624    -0.13000
F3252       F  0.81151643  0.60622409  0.20712648    -0.13500
F3253       F  0.98054857  0.62201208  0.19502380    -0.15800
F3254       F  0.78233852  0.57123827  0.17051847    -0.14400
F3255       F  0.91100327  0.04961853  0.13226404    -0.14400
F3256       F  0.78006721  0.60511273  0.10603387    -0.15800
C3257       C  0.64122951  0.67274472  0.38371967     0.14300
C3258       C  0.65712683  0.71371994  0.37184181     0.01200
C3259       C  0.68329731  0.76096264  0.38147565     0.16200
C3260       C  0.70021533  0.76751885  0.40081149     0.25600
C3261       C  0.69078382  0.72709003  0.41107860    -0.40700
C3262       C  0.65699929  0.67955914  0.40307514     0.32700
C3263       C  0.64907821  0.70768884  0.34987635     0.01300
F3264       F  0.69162100  0.80109652  0.37262327    -0.13000
F3265       F  0.64457825  0.63957697  0.41336362    -0.13500
C3266       C  0.60680305  0.66284651  0.34119539     0.16200
C3267       C  0.60264168  0.65602019  0.32096580     0.25600
C3268       C  0.62972732  0.69737331  0.30899830    -0.40600
C3269       C  0.67157292  0.74225305  0.31709600     0.32600
C3270       C  0.68396162  0.74625722  0.33695227     0.14300
F3271       F  0.56413318  0.62806732  0.35174923    -0.13000
F3272       F  0.69590267  0.78347860  0.30633068    -0.13500
F3273       F  0.56165011  0.61181691  0.31351833    -0.15800
F3274       F  0.72849637  0.78904686  0.34338062    -0.14400
F3275       F  0.61414138  0.62560186  0.37684339    -0.14400
F3276       F  0.72953553  0.81384852  0.40895559    -0.15800
C3277       C  0.63747506  0.70709602  0.17500390     0.14300
C3278       C  0.66937019  0.75462157  0.16711565     0.01200
C3279       C  0.69028173  0.79625888  0.17990794     0.16200
C3280       C  0.67657572  0.79056162  0.19973446     0.25600
C3281       C  0.64123868  0.74332362  0.20702024    -0.40700
C3282       C  0.62330436  0.70165474  0.19468659     0.32700
C3283       C  0.68065960  0.76026429  0.14572101     0.01300
F3284       F  0.71992511  0.84259532  0.17294357    -0.13000
F3285       F  0.58987003  0.65546701  0.20164572    -0.13500
C3286       C  0.63934954  0.72963235  0.13228576     0.16200
C3287       C  0.65124622  0.73014344  0.11242314     0.25600
C3288       C  0.70344061  0.76383735  0.10542045    -0.40600
C3289       C  0.74361414  0.79750174  0.11843519     0.32600
C3290       C  0.73306551  0.79437044  0.13845702     0.14300
F3291       F  0.58768728  0.69779070  0.13841579    -0.13000
F3292       F  0.79481293  0.82940445  0.11188444    -0.13500
F3293       F  0.61296114  0.69516548  0.10016255    -0.15800
F3294       F  0.77536344  0.82144282  0.15064192    -0.14400
F3295       F  0.62070159  0.66568635  0.16378865    -0.14400
F3296       F  0.69351660  0.83103402  0.21148285    -0.15800
C3297       C  0.89487253  0.84737534  0.87017525     0.14300
C3298       C  0.87951319  0.80512543  0.85821810     0.01200
C3299       C  0.85951594  0.76016132  0.86739388     0.16200
C3300       C  0.84336731  0.75460688  0.88673654     0.25600
C3301       C  0.84756493  0.79425379  0.89711395    -0.40700
C3302       C  0.87852050  0.84171272  0.88960805     0.32700
C3303       C  0.87637379  0.80512511  0.83662393     0.01300
F3304       F  0.85245031  0.72060931  0.85726416    -0.13000
F3305       F  0.88760656  0.88156287  0.90044247    -0.13500
C3306       C  0.91585156  0.84565418  0.82576756     0.16200
C3307       C  0.91166360  0.84446118  0.80563913     0.25600
C3308       C  0.87311394  0.80021308  0.79591640    -0.40600
C3309       C  0.83101075  0.76175529  0.80628905     0.32600
C3310       C  0.83245356  0.76390721  0.82645547     0.14300
F3311       F  0.96209646  0.88348103  0.83398080    -0.13000
F3312       F  0.79283659  0.71919767  0.79694747    -0.13500
F3313       F  0.95168494  0.88271216  0.79533429    -0.15800
F3314       F  0.79267428  0.72320469  0.83561371    -0.14400
F3315       F  0.92172799  0.89351841  0.86322262    -0.14400
F3316       F  0.81782373  0.70936618  0.89463297    -0.15800
C3317       C  0.60525419  0.90647233  0.82728931     0.14300
C3318       C  0.64373732  0.89771021  0.83359690     0.01200
C3319       C  0.66638058  0.88070972  0.81986490     0.16200
C3320       C  0.64973249  0.87119961  0.80029711     0.25600
C3321       C  0.61138613  0.88030487  0.79409346    -0.40700
C3322       C  0.59092401  0.89973405  0.80773824     0.32700
C3323       C  0.66207027  0.90951841  0.85425127     0.01300
F3324       F  0.70211963  0.87061295  0.82583042    -0.13000
F3325       F  0.55407084  0.90925173  0.80222314    -0.13500
C3326       C  0.62438721  0.88901306  0.86963025     0.16200
C3327       C  0.63951157  0.90748776  0.88879396     0.25600
C3328       C  0.69250666  0.94707524  0.89278795    -0.40600
C3329       C  0.73109780  0.96525831  0.87771085     0.32600
C3330       C  0.71615083  0.94624755  0.85868606     0.14300
F3331       F  0.57246675  0.85242494  0.86586116    -0.13000
F3332       F  0.78680734  0.50489600  0.88135316    -0.13500
F3333       F  0.60159205  0.88962539  0.90321387    -0.15800
F3334       F  0.75377374  0.96685494  0.84438365    -0.14400
F3335       F  0.58209305  0.92258089  0.84003429    -0.14400
F3336       F  0.66807762  0.85011510  0.78777833    -0.15800
C3337       C  0.68862592  0.89352683  0.62082394     0.14300
C3338       C  0.65468468  0.90942081  0.62731924     0.01200
C3339       C  0.63936318  0.92986783  0.61308028     0.16200
C3340       C  0.66402372  0.94123176  0.59477409     0.25600
C3341       C  0.70692730  0.93585714  0.59066765    -0.40700
C3342       C  0.71584194  0.90787659  0.60293744     0.32700
C3343       C  0.63778824  0.90613531  0.64856277     0.01300
F3344       F  0.60362897  0.94259206  0.61666112    -0.13000
F3345       F  0.75381496  0.89794710  0.59834300    -0.13500
C3346       C  0.67092596  0.90878732  0.66371660     0.16200
C3347       C  0.65249792  0.89966148  0.68317525     0.25600
C3348       C  0.60347069  0.89409230  0.68850238    -0.40600
C3349       C  0.57485776  0.89957325  0.67382245     0.32600
C3350       C  0.58813649  0.89928947  0.65419520     0.14300
F3351       F  0.71987886  0.91684362  0.65961345    -0.13000
F3352       F  0.52751423  0.89536719  0.67814056    -0.13500
F3353       F  0.68037088  0.89213860  0.69628847    -0.15800
F3354       F  0.54879312  0.88609242  0.64109737    -0.14400
F3355       F  0.69524042  0.86367343  0.63163432    -0.14400
F3356       F  0.65021206  0.46328128  0.58181893    -0.15800
C3357       C  0.77820768  0.70992033  0.67117493     0.14300
C3358       C  0.80635895  0.73993527  0.65513552     0.01200
C3359       C  0.84885891  0.78958184  0.65898857     0.16200
C3360       C  0.86599232  0.80693521  0.67790180     0.25600
C3361       C  0.84409688  0.77427556  0.69333759    -0.40700
C3362       C  0.79705513  0.72710968  0.69018516     0.32700
C3363       C  0.79315742  0.72119466  0.63446843     0.01300
F3364       F  0.87547082  0.82156381  0.64444455    -0.13000
F3365       F  0.77212377  0.69638277  0.70525587    -0.13500
C3366       C  0.73971943  0.69401260  0.62750377     0.16200
C3367       C  0.73021391  0.69022344  0.60752147     0.25600
C3368       C  0.77375759  0.71442890  0.59440259    -0.40600
C3369       C  0.82602194  0.73340745  0.60087550     0.32600
C3370       C  0.83553078  0.73625278  0.62078330     0.14300
F3371       F  0.69665887  0.67531915  0.63971101    -0.13000
F3372       F  0.86849662  0.75497221  0.58822871    -0.13500
F3373       F  0.67878971  0.66861575  0.60118314    -0.15800
F3374       F  0.88710407  0.75870781  0.62677190    -0.14400
F3375       F  0.73555671  0.66278012  0.66851095    -0.14400
F3376       F  0.90921894  0.85404166  0.68084385    -0.15800
C3377       C  0.59193739  0.69606000  0.83819375     0.14300
C3378       C  0.54631599  0.67226932  0.85054905     0.01200
C3379       C  0.49740019  0.63279031  0.84250020     0.16200
C3380       C  0.49420871  0.61932872  0.82265181     0.25600
C3381       C  0.53962139  0.64465075  0.81024783    -0.40700
C3382       C  0.58874494  0.68235705  0.81839717     0.32700
C3383       C  0.54920345  0.69058061  0.87128933     0.01300
F3384       F  0.45179740  0.60841850  0.85352323    -0.13000
F3385       F  0.63429372  0.70399090  0.80729076    -0.13500
C3386       C  0.57493309  0.74169973  0.87573415     0.16200
C3387       C  0.57228555  0.75837259  0.89459029     0.25600
C3388       C  0.54077018  0.72492146  0.90912151    -0.40600
C3389       C  0.51963338  0.67446088  0.90544645     0.32600
C3390       C  0.52453251  0.65750354  0.88678797     0.14300
F3391       F  0.59920381  0.77565955  0.86160243    -0.13000
F3392       F  0.49148112  0.64130773  0.91957459    -0.13500
F3393       F  0.59693604  0.80739922  0.89835311    -0.15800
F3394       F  0.50382441  0.60855909  0.88378011    -0.14400
F3395       F  0.64022362  0.73178289  0.84553642    -0.14400
F3396       F  0.44658898  0.58097114  0.81552373    -0.15800
C3397       C  0.68447250  0.53318503  0.82631457     0.14300
C3398       C  0.68102881  0.56683470  0.83887077     0.01200
C3399       C  0.67713950  0.60341977  0.83053469     0.16200
C3400       C  0.67069251  0.60259119  0.81033131     0.25600
C3401       C  0.66462909  0.56334509  0.79815466    -0.40700
C3402       C  0.67537743  0.53072612  0.80619106     0.32700
C3403       C  0.68247940  0.56320298  0.86045117     0.01300
F3404       F  0.67631939  0.63811096  0.84200732    -0.13000
F3405       F  0.67535634  0.49571191  0.79472426    -0.13500
C3406       C  0.72701928  0.59914236  0.87141113     0.16200
C3407       C  0.73917024  0.58667206  0.88899354     0.25600
C3408       C  0.70191110  0.54080943  0.89730245    -0.40600
C3409       C  0.65039201  0.51127741  0.88876960     0.32600
C3410       C  0.64171824  0.52099687  0.87002789     0.14300
F3411       F  0.75894809  0.64551509  0.86477613    -0.13000
F3412       F  0.60912558  0.47235953  0.89834019    -0.13500
F3413       F  0.78817788  0.61774579  0.89720143    -0.15800
F3414       F  0.59325016  0.49005543  0.86142124    -0.14400
F3415       F  0.69815115  0.50361380  0.83361558    -0.14400
F3416       F  0.66446570  0.63724549  0.80288056    -0.15800
C3417       C  0.72975187  0.57122254  0.66934810     0.14300
C3418       C  0.69603895  0.54575518  0.65353163     0.01200
C3419       C  0.63995981  0.52056156  0.65687306     0.16200
C3420       C  0.61929873  0.51772768  0.67585332     0.25600
C3421       C  0.65372752  0.54667741  0.69142350    -0.40700
C3422       C  0.70949873  0.57360262  0.68773096     0.32700
C3423       C  0.72127736  0.54498693  0.63425885     0.01300
F3424       F  0.60479771  0.49992658  0.64196456    -0.13000
F3425       F  0.74461620  0.60515241  0.70143973    -0.13500
C3426       C  0.75766466  0.52977829  0.63338999     0.16200
C3427       C  0.78101248  0.52751679  0.61568399     0.25600
C3428       C  0.76920938  0.54063982  0.59820469    -0.40600
C3429       C  0.73645815  0.55980151  0.59919273     0.32600
C3430       C  0.71215891  0.56134350  0.61699288     0.14300
F3431       F  0.76803518  0.51386974  0.64958729    -0.13000
F3432       F  0.72360300  0.57226366  0.58259968    -0.13500
F3433       F  0.81065718  0.50721290  0.61522434    -0.15800
F3434       F  0.67855076  0.57744779  0.61721446    -0.14400
F3435       F  0.78322530  0.59682190  0.66638391    -0.14400
F3436       F  0.56497232  0.48951245  0.67870648    -0.15800
C3437       C  0.63041225  0.72127733  0.67447444     0.14300
C3438       C  0.58909571  0.72513716  0.66742072     0.01200
C3439       C  0.55303765  0.72529190  0.68114255     0.16200
C3440       C  0.55393102  0.71573206  0.70090080     0.25600
C3441       C  0.59213368  0.70689745  0.70738664    -0.40700
C3442       C  0.63461933  0.71649794  0.69443661     0.32700
C3443       C  0.58278244  0.72811873  0.64590002     0.01300
F3444       F  0.51248332  0.72815135  0.67486624    -0.13000
F3445       F  0.67400993  0.71072557  0.70041455    -0.13500
C3446       C  0.57311272  0.68993444  0.63252275     0.16200
C3447       C  0.56371455  0.69214591  0.61264354     0.25600
C3448       C  0.56588772  0.73350319  0.60546538    -0.40600
C3449       C  0.57800554  0.77235543  0.61874668     0.32600
C3450       C  0.58482586  0.76901826  0.63868630     0.14300
F3451       F  0.56943367  0.64906929  0.63890457    -0.13000
F3452       F  0.57720307  0.81117561  0.61266442    -0.13500
F3453       F  0.55029219  0.65294919  0.60052453    -0.15800
F3454       F  0.59150974  0.80504176  0.65126033    -0.14400
F3455       F  0.66336849  0.71691966  0.66187836    -0.14400
F3456       F  0.51388811  0.70938586  0.71307904    -0.15800
C3457       C  0.95562262  0.74674485  0.86871215     0.14300
C3458       C  0.92536016  0.69567727  0.86396566     0.01200
C3459       C  0.90474485  0.66177272  0.87918371     0.16200
C3460       C  0.91593755  0.67863587  0.89857616     0.25600
C3461       C  0.94855728  0.72950858  0.90309681    -0.40700
C3462       C  0.96607744  0.76338745  0.88817410     0.32700
C3463       C  0.91248376  0.67808941  0.84327615     0.01300
F3464       F  0.87592009  0.61224510  0.87532116    -0.13000
F3465       F  0.99504602  0.81262578  0.89254549    -0.13500
C3466       C  0.95336471  0.69529442  0.82900075     0.16200
C3467       C  0.94124740  0.67318644  0.81029169     0.25600
C3468       C  0.88780479  0.63633429  0.80524478    -0.40600
C3469       C  0.84655186  0.62710704  0.81827417     0.32600
C3470       C  0.85890177  0.64359953  0.83755109     0.14300
F3471       F  0.00561036  0.72954943  0.83366264    -0.13000
F3472       F  0.79422209  0.59652041  0.81294604    -0.13500
F3473       F  0.98204764  0.68576523  0.79755338    -0.15800
F3474       F  0.81869025  0.62293687  0.85078329    -0.14400
F3475       F  0.97249833  0.78035981  0.85452429    -0.14400
F3476       F  0.89802962  0.64528272  0.91292612    -0.15800
C3477       C  0.84482534  0.89984226  0.83098197     0.14300
C3478       C  0.79350051  0.85592838  0.83361721     0.01200
C3479       C  0.76258530  0.83125024  0.81673649     0.16200
C3480       C  0.78004260  0.85239825  0.79835188     0.25600
C3481       C  0.82855963  0.89870694  0.79643248    -0.40700
C3482       C  0.86266258  0.91985198  0.81257990     0.32700
C3483       C  0.77324072  0.83679362  0.85380782     0.01300
F3484       F  0.71185690  0.79069868  0.81823319    -0.13000
F3485       F  0.90960147  0.96464438  0.81111846    -0.13500
C3486       C  0.78127526  0.86913844  0.86977396     0.16200
C3487       C  0.77356305  0.85300263  0.88901414     0.25600
C3488       C  0.75690707  0.80413247  0.89259879    -0.40600
C3489       C  0.74055547  0.77023316  0.87683460     0.32600
C3490       C  0.74907962  0.78642365  0.85771855     0.14300
F3491       F  0.79834954  0.91682269  0.86684506    -0.13000
F3492       F  0.72023483  0.72186091  0.87997535    -0.13500
F3493       F  0.78649355  0.88600822  0.90407419    -0.15800
F3494       F  0.73540515  0.75261599  0.84310876    -0.14400
F3495       F  0.87658975  0.92615979  0.84633670    -0.14400
F3496       F  0.74647519  0.83058289  0.78291926    -0.15800
C3497       C  0.93439563  0.62696799  0.67194858     0.14300
C3498       C  0.91225682  0.64973369  0.66278901     0.01200
C3499       C  0.88425805  0.66598134  0.67398772     0.16200
C3500       C  0.87565292  0.65708869  0.69385588     0.25600
C3501       C  0.89292574  0.62992976  0.70237986    -0.40700
C3502       C  0.92514553  0.61758200  0.69166978     0.32700
C3503       C  0.92168050  0.65993607  0.64191121     0.01300
F3504       F  0.85938868  0.68472301  0.66508161    -0.13000
F3505       F  0.94392176  0.59284015  0.70013528    -0.13500
C3506       C  0.91482746  0.62340628  0.62823095     0.16200
C3507       C  0.93078594  0.63584963  0.60891060     0.25600
C3508       C  0.95154770  0.68421786  0.60326276    -0.40600
C3509       C  0.95241310  0.71865998  0.61624587     0.32600
C3510       C  0.94068592  0.70762185  0.63563046     0.14300
F3511       F  0.89610491  0.57690379  0.63383897    -0.13000
F3512       F  0.47179615  0.76533557  0.61053702    -0.13500
F3513       F  0.92974698  0.60223385  0.59615785    -0.15800
F3514       F  0.95343586  0.74524734  0.64836368    -0.14400
F3515       F  0.96600759  0.61498187  0.66197754    -0.14400
F3516       F  0.84650563  0.67087151  0.70437593    -0.15800
C3517       C  0.78666269  0.84167497  0.67093676     0.14300
C3518       C  0.81075856  0.87051946  0.65420359     0.01200
C3519       C  0.84806063  0.92184677  0.65724885     0.16200
C3520       C  0.86063961  0.94300459  0.67614430     0.25600
C3521       C  0.83266002  0.91449314  0.69256246    -0.40700
C3522       C  0.79642677  0.86335419  0.68971768     0.32700
C3523       C  0.79663590  0.84744574  0.63383715     0.01300
F3524       F  0.86973865  0.95251697  0.64197599    -0.13000
F3525       F  0.76830699  0.83439969  0.70499560    -0.13500
C3526       C  0.74279924  0.81016091  0.62891466     0.16200
C3527       C  0.72930692  0.78844128  0.61013790     0.25600
C3528       C  0.76925156  0.80156064  0.59589813    -0.40600
C3529       C  0.82289821  0.83910150  0.60041227     0.32600
C3530       C  0.83650885  0.86201844  0.61903547     0.14300
F3531       F  0.70246414  0.79540618  0.64213885    -0.13000
F3532       F  0.86265079  0.85218517  0.58693445    -0.13500
F3533       F  0.67730515  0.75289540  0.60601827    -0.15800
F3534       F  0.88949641  0.89582139  0.62285510    -0.14400
F3535       F  0.75440109  0.79191611  0.66936305    -0.14400
F3536       F  0.89699918  0.99259222  0.67829288    -0.15800
loop_ 
_geom_bond_atom_site_label_1 
_geom_bond_atom_site_label_2 
_geom_bond_distance 
_geom_bond_site_symmetry_2 
_ccdc_geom_bond_type 
O1           Ni7   1.998       .  S
O1           C22   1.305       .  A
O2          Ni25   1.929       .  S
O2           C11   1.303       .  A
O3           Ni7   1.826       .  S
O3          Ni25   1.819   1_556  S
O3          Ni19   1.876       .  S
O3           H26   0.966       .  S
C4           O21   1.311       .  A
C4           O13   1.317       .  A
C4          C196   1.527       .  S
O5          Ni24   1.977   1_554  S
O5           C11   1.294       .  A
O6          Ni24   1.931       .  S
O6            C8   1.268       .  A
Ni7          O10   1.985   1_556  S
Ni7          O12   2.009   1_556  S
C8           O18   1.293       .  A
C8          C171   1.501       .  S
O9          Ni25   1.964       .  S
O9           C15   1.310       .  A
O10          C15   1.300       .  A
C11         C381   1.522       .  S
O12          C14   1.291       .  A
O13         Ni24   2.034       .  S
C14          O20   1.286       .  A
C14         C398   1.546       .  S
C15         C365   1.514       .  S
H16          O17   0.957   1_554  S
O17         Ni25   1.859   1_556  S
O17         Ni19   1.856       .  S
O17         Ni24   1.806       .  S
O18         Ni19   1.953       .  S
Ni19         O23   1.962       .  S
Ni19         O21   1.978       .  S
O20         Ni25   1.962       .  S
C22          O23   1.311       .  A
C22         C188   1.532       .  S
O27         Ni33   1.971       .  S
O27          C48   1.299       .  A
O28         Ni51   1.994       .  S
O28          C37   1.317       .  A
O29         Ni33   1.786       .  S
O29         Ni51   1.897       .  S
O29         Ni45   1.895       .  S
O29          H52   0.963       .  S
C30          O47   1.322       .  A
C30          O39   1.294       .  A
C30         C155   1.510       .  S
O31         Ni50   1.948       .  S
O31          C37   1.288       .  A
O32         Ni50   1.999       .  S
O32          C34   1.275       .  A
Ni33         O36   2.040       .  S
Ni33         O38   1.933       .  S
C34          O44   1.260       .  A
C34         C164   1.537       .  S
O35         Ni51   1.931       .  S
O35          C41   1.314       .  A
O36          C41   1.324       .  A
C37         C390   1.530       .  S
O38          C40   1.276       .  A
O39         Ni50   1.956       .  S
C40          O46   1.285       .  A
C40         C374   1.496       .  S
C41         C323   1.516       .  S
H42          O43   0.967       .  S
O43         Ni51   1.873       .  S
O43         Ni45   1.874       .  S
O43         Ni50   1.893       .  S
O44         Ni45   1.906       .  S
Ni45         O49   1.957       .  S
Ni45         O47   1.988       .  S
O46         Ni51   1.939       .  S
C48          O49   1.310       .  A
C48         C179   1.505       .  S
N53          H85   1.042       .  S
N53          C57   1.348       .  A
N53         C942   1.346       .  A
N54          C61   1.352       .  A
N54          C62   1.344       .  A
N55          H86   1.041       .  S
N55          C59   1.356       .  A
N55         C944   1.362       .  A
N56          C63   1.342       .  A
N56          C64   1.339       .  A
C57          C65   1.377       .  A
C57          C73   1.407       .  A
C58         N937   1.345       .  A
C58          C74   1.396       .  A
C58          C66   1.381       .  A
C59          C67   1.379       .  A
C59          C76   1.423       .  A
C60         N939   1.361       .  A
C60          C75   1.429       .  A
C60          C68   1.388       .  A
C61          C73   1.415       .  A
C61          C69   1.384       .  A
C62          C76   1.410       .  A
C62          C70   1.383       .  A
C63          C71   1.380       .  A
C63          C74   1.389       .  A
C64          C72   1.386       .  A
C64          C75   1.403       .  A
C65         C950   1.363       .  A
C65          H77   1.065       .  S
C66         C949   1.365   1_545  A
C66          H78   1.075       .  S
C67         C952   1.365       .  A
C67          H79   1.076       .  S
C68         C951   1.364   1_545  A
C68          H80   1.075       .  S
C69          C70   1.388       .  A
C69          H81   1.082       .  S
C70          H82   1.079       .  S
C71          C72   1.375       .  A
C71          H83   1.083       .  S
C72          H84   1.070       .  S
C73         C869   1.505       .  S
C74         C849   1.466       .  S
C75         C816   1.492       .  S
C76         C829   1.499       .  S
N87         H119   1.041       .  S
N87          C92   1.350       .  A
N87          C91   1.359       .  A
N88          C95   1.349       .  A
N88          C96   1.352       .  A
N89         H120   1.042       .  S
N89          C94   1.349       .  A
N89          C93   1.343       .  A
N90          C97   1.351       .  A
N90          C98   1.354       .  A
C91          C99   1.394       .  A
C91         C107   1.432       .  A
C92         C108   1.413       .  A
C92         C100   1.382       .  A
C93         C101   1.382       .  A
C93         C110   1.398       .  A
C94         C109   1.412       .  A
C94         C102   1.390       .  A
C95         C107   1.432       .  A
C95         C103   1.393       .  A
C96         C110   1.418       .  A
C96         C104   1.383       .  A
C97         C105   1.385       .  A
C97         C108   1.418       .  A
C98         C106   1.390       .  A
C98         C109   1.431       .  A
C99         C100   1.365       .  A
C99         H111   1.075       .  S
C100        H112   1.081       .  S
C101        C102   1.371       .  A
C101        H113   1.083   1_545  S
C102        H114   1.077   1_455  S
C103        C104   1.394       .  A
C103        H115   1.080       .  S
C104        H116   1.082       .  S
C105        C106   1.393       .  A
C105        H117   1.082       .  S
C106        H118   1.082       .  S
C107        C769   1.512       .  S
C108        C789   1.503       .  S
C109        C729   1.502       .  S
C110        C749   1.504       .  S
N121        H153   1.039       .  S
N121        C126   1.345       .  A
N121       C1893   1.351       .  A
N122        C129   1.347       .  A
N122        C130   1.346       .  A
N123        H154   1.041       .  S
N123        C128   1.354       .  A
N123       C1895   1.353       .  A
N124        C131   1.333       .  A
N124        C132   1.338       .  A
C125       N1889   1.351   1_455  A
C125        C133   1.386       .  A
C125        C141   1.412       .  A
C126        C142   1.406       .  A
C126        C134   1.384       .  A
C127       N1891   1.353   1_455  A
C127        C135   1.380       .  A
C127        C144   1.414       .  A
C128        C143   1.413       .  A
C128        C136   1.371       .  A
C129        C141   1.414       .  A
C129        C137   1.387       .  A
C130        C144   1.414       .  A
C130        C138   1.387       .  A
C131        C139   1.386       .  A
C131        C142   1.388       .  A
C132        C140   1.384       .  A
C132        C143   1.389       .  A
C133       C1902   1.370   1_455  A
C133        H145   1.081       .  S
C134       C1901   1.370       .  A
C134        H146   1.081       .  S
C135       C1904   1.357   1_455  A
C135        H147   1.078       .  S
C136       C1903   1.357       .  A
C136        H148   1.068       .  S
C137        C138   1.393       .  A
C137        H149   1.082       .  S
C138        H150   1.082       .  S
C139        C140   1.379       .  A
C139        H151   1.082       .  S
C140        H152   1.082       .  S
C141        C669   1.493       .  S
C142        C656   1.456       .  S
C143        C709   1.482       .  S
C144        C696   1.505       .  S
C155        C160   1.400       .  A
C155       C1924   1.470       .  A
C156        C224   1.532       .  S
C156        C157   1.434       .  A
C156       C1923   1.470   1_455  A
C157        C158   1.410       .  A
C157        H162   1.083       .  S
C158        C796   1.507       .  S
C158       C1927   1.402   1_455  A
C159        C856   1.456       .  S
C159        C160   1.378       .  A
C159       C1926   1.402       .  A
C160        H161   1.087       .  S
C163        C206   1.511       .  S
C163        C168   1.414       .  A
C163       C1048   1.472       .  A
C164        C165   1.438       .  A
C164       C1047   1.470   1_545  A
C165        C166   1.405       .  A
C165        H170   1.085       .  S
C166        C776   1.507       .  S
C166       C1051   1.403   1_545  A
C167        C689   1.477       .  S
C167        C168   1.382       .  A
C167       C1050   1.403       .  A
C168        H169   1.088       .  S
C171        C172   1.451       .  A
C171        C176   1.397       .  A
C172        C250   1.497       .  S
C172        C173   1.425       .  A
C173        C174   1.390       .  A
C173        H178   1.085       .  S
C174        C836   1.497       .  S
C174        C175   1.403       .  A
C175        C649   1.455       .  S
C175        C176   1.383       .  A
C176        H177   1.080       .  S
C179        C180   1.456       .  A
C179        C184   1.411       .  A
C180        C210   1.493       .  S
C180        C181   1.418       .  A
C181        C182   1.397       .  A
C181        H186   1.086       .  S
C182        C876   1.494       .  S
C182        C183   1.404       .  A
C183        C716   1.474       .  S
C183        C184   1.393       .  A
C184        H185   1.086       .  S
C187        C232   1.512       .  S
C187        C192   1.414       .  A
C187       C1072   1.453       .  A
C188        C189   1.427       .  A
C188       C1071   1.454   1_545  A
C189        C190   1.407       .  A
C189        H194   1.082       .  S
C190        C756   1.504       .  S
C190       C1075   1.408   1_545  A
C191        C676   1.483       .  S
C191        C192   1.396       .  A
C191       C1074   1.409       .  A
C192        H193   1.085       .  S
C195        C236   1.546       .  S
C195        C200   1.434       .  A
C195       C1964   1.460   1_455  A
C196        C197   1.414       .  A
C196       C1963   1.460       .  A
C197        C198   1.402       .  A
C197        H202   1.079       .  S
C198        C809   1.479       .  S
C198       C1967   1.405       .  A
C199        C736   1.505       .  S
C199        C200   1.396       .  A
C199       C1966   1.405   1_455  A
C200        H201   1.083       .  S
O203       Ni209   1.951       .  S
O203        C224   1.291       .  A
O204       Ni227   1.935       .  S
O204        C213   1.304       .  A
O205       Ni209   1.896       .  S
O205       Ni227   1.861       .  S
O205       Ni221   1.879       .  S
O205        H228   0.967       .  S
C206        O223   1.316       .  A
C206        O215   1.329       .  A
O207       Ni226   1.982       .  S
O207        C213   1.304       .  A
O208       Ni226   1.925       .  S
O208        C210   1.274       .  A
Ni209       O212   1.972       .  S
Ni209       O214   2.005       .  S
C210        O220   1.290       .  A
O211       Ni227   1.985       .  S
O211        C217   1.318       .  A
O212        C217   1.298       .  A
C213        C373   1.500       .  S
O214        C216   1.275       .  A
O215       Ni226   2.054       .  S
C216        O222   1.257       .  A
C216        C324   1.540       .  S
C217        C389   1.520       .  S
H218        O219   0.961       .  S
O219       Ni227   1.875       .  S
O219       Ni221   1.887       .  S
O219       Ni226   1.765       .  S
O220       Ni221   1.946       .  S
Ni221       O225   2.001       .  S
Ni221       O223   1.923       .  S
O222       Ni227   1.890       .  S
C224        O225   1.318       .  A
O229       Ni235   1.971       .  S
O229        C250   1.296       .  A
O230       Ni253   1.955       .  S
O230        C239   1.310       .  A
O231       Ni235   1.805       .  S
O231       Ni253   1.845   1_556  S
O231       Ni247   1.862       .  S
O231        H254   0.953       .  S
C232        O249   1.307       .  A
C232        O241   1.304       .  A
O233       Ni252   1.990   1_554  S
O233        C239   1.305       .  A
O234       Ni252   2.006       .  S
O234        C236   1.287       .  A
Ni235       O238   2.030   1_556  S
Ni235       O240   1.939   1_556  S
C236        O246   1.275       .  A
O237       Ni253   1.973       .  S
O237        C243   1.306       .  A
O238        C243   1.312       .  A
C239        C366   1.519       .  S
O240        C242   1.274       .  A
O241       Ni252   1.990       .  S
C242        O248   1.297       .  A
C242        C382   1.510       .  S
C243        C397   1.525       .  S
H244        O245   0.967       .  S
O245       Ni253   1.871   1_556  S
O245       Ni247   1.825       .  S
O245       Ni252   1.828       .  S
O246       Ni247   1.928       .  S
Ni247       O251   1.920       .  S
Ni247       O249   1.954       .  S
O248       Ni253   1.957       .  S
C250        O251   1.299       .  A
N255        H287   1.039       .  S
N255        C260   1.349       .  A
N255       C2027   1.350   1_455  A
N256        C263   1.348       .  A
N256        C264   1.346       .  A
N257        H288   1.039       .  S
N257        C262   1.353       .  A
N257       C2029   1.350   1_455  A
N258        C265   1.344       .  A
N258        C266   1.346       .  A
C259       N2023   1.350       .  A
C259        C267   1.385       .  A
C259        C275   1.410       .  A
C260        C276   1.411       .  A
C260        C268   1.387       .  A
C261       N2025   1.350       .  A
C261        C269   1.381       .  A
C261        C278   1.410       .  A
C262        C277   1.409       .  A
C262        C270   1.381       .  A
C263        C275   1.413       .  A
C263        C271   1.388       .  A
C264        C278   1.408       .  A
C264        C272   1.384       .  A
C265        C273   1.387       .  A
C265        C276   1.408       .  A
C266        C274   1.383       .  A
C266        C277   1.406       .  A
C267       C2036   1.369       .  A
C267        H279   1.080       .  S
C268       C2035   1.369   1_455  A
C268        H280   1.079       .  S
C269       C2038   1.352       .  A
C269        H281   1.077       .  S
C270       C2037   1.352   1_455  A
C270        H282   1.081       .  S
C271        C272   1.384       .  A
C271        H283   1.080       .  S
C272        H284   1.083       .  S
C273        C274   1.386       .  A
C273        H285   1.081       .  S
C274        H286   1.080       .  S
C275        C596   1.496       .  S
C276        C629   1.476       .  S
C277        C616   1.495       .  S
C278        C576   1.487       .  S
N289        H321   1.042       .  S
N289        C294   1.347       .  A
N289        C293   1.349       .  A
N290        C297   1.349       .  A
N290        C298   1.341       .  A
N291        H322   1.039       .  S
N291        C296   1.355       .  A
N291        C295   1.353       .  A
N292        C299   1.353       .  A
N292        C300   1.350       .  A
C293        C301   1.380       .  A
C293        C309   1.404       .  A
C294        C310   1.404       .  A
C294        C302   1.382       .  A
C295        C303   1.383       .  A
C295        C312   1.413       .  A
C296        C311   1.417       .  A
C296        C304   1.382       .  A
C297        C309   1.403       .  A
C297        C305   1.381       .  A
C298        C312   1.407       .  A
C298        C306   1.384       .  A
C299        C307   1.381       .  A
C299        C310   1.416       .  A
C300        C308   1.377       .  A
C300        C311   1.416       .  A
C301        C302   1.361       .  A
C301        H313   1.069       .  S
C302        H314   1.077       .  S
C303        C304   1.362       .  A
C303        H315   1.080       .  S
C304        H316   1.074       .  S
C305        C306   1.379       .  A
C305        H317   1.080       .  S
C306        H318   1.077       .  S
C307        C308   1.388       .  A
C307        H319   1.079       .  S
C308        H320   1.074       .  S
C309        C489   1.493       .  S
C310        C536   1.500       .  S
C311        C549   1.508       .  S
C312        C509   1.481       .  S
C323        C328   1.424       .  A
C323       C1208   1.476   1_545  A
C324        C325   1.431       .  A
C324       C1207   1.476       .  A
C325        C326   1.386       .  A
C325        H330   1.085       .  S
C326        C529   1.492       .  S
C326       C1211   1.393       .  A
C327        C569   1.483       .  S
C327        C328   1.397       .  A
C327       C1210   1.394   1_545  A
C328        H329   1.086       .  S
N331        H363   1.046       .  S
N331        C336   1.341       .  A
N331       C1219   1.341   1_545  A
N332        C339   1.352       .  A
N332        C340   1.346       .  A
N333        H364   1.041       .  S
N333        C338   1.360       .  A
N333       C1221   1.358   1_545  A
N334        C341   1.345       .  A
N334        C342   1.337       .  A
C335       N1215   1.342       .  A
C335        C343   1.386       .  A
C335        C351   1.400       .  A
C336        C352   1.390       .  A
C336        C344   1.381       .  A
C337       N1217   1.358       .  A
C337        C345   1.383       .  A
C337        C354   1.417       .  A
C338        C353   1.425       .  A
C338        C346   1.378       .  A
C339        C351   1.422       .  A
C339        C347   1.382       .  A
C340        C354   1.419       .  A
C340        C348   1.385       .  A
C341        C349   1.384       .  A
C341        C352   1.409       .  A
C342        C350   1.391       .  A
C342        C353   1.415       .  A
C343       C1228   1.379       .  A
C343        H355   1.080       .  S
C344       C1227   1.379   1_545  A
C344        H356   1.082       .  S
C345       C1230   1.357       .  A
C345        H357   1.081       .  S
C346       C1229   1.358   1_545  A
C346        H358   1.068       .  S
C347        C348   1.390       .  A
C347        H359   1.078       .  S
C348        H360   1.078       .  S
C349        C350   1.388       .  A
C349        H361   1.078       .  S
C350        H362   1.076       .  S
C351        C429   1.536       .  S
C352        C469   1.498       .  S
C353        C449   1.504       .  S
C354        C416   1.512       .  S
C365        C370   1.408       .  A
C365       C1250   1.461   1_545  A
C366        C367   1.434       .  A
C366       C1249   1.462       .  A
C367        C368   1.402       .  A
C367        H372   1.084       .  S
C368        C556   1.511       .  S
C368       C1253   1.403       .  A
C369        C589   1.465       .  S
C369        C370   1.388       .  A
C369       C1252   1.404   1_545  A
C370        H371   1.083       .  S
C373        C374   1.445       .  A
C373        C378   1.407       .  A
C374        C375   1.417       .  A
C375        C376   1.406       .  A
C375        H380   1.085       .  S
C376        C456   1.487       .  S
C376        C377   1.411       .  A
C377        C609   1.482       .  S
C377        C378   1.386       .  A
C378        H379   1.085       .  S
C381        C382   1.462       .  A
C381        C386   1.415       .  A
C382        C383   1.419       .  A
C383        C384   1.393       .  A
C383        H388   1.084       .  S
C384        C636   1.476       .  S
C384        C385   1.396       .  A
C385        C476   1.470       .  S
C385        C386   1.379       .  A
C386        H387   1.083       .  S
C389        C394   1.417       .  A
C389       C2158   1.474   1_455  A
C390        C391   1.424       .  A
C390       C2157   1.474       .  A
C391        C392   1.396       .  A
C391        H396   1.083       .  S
C392        C496   1.488       .  S
C392       C2161   1.404       .  A
C393        C409   1.489       .  S
C393        C394   1.392       .  A
C393       C2160   1.404   1_455  A
C394        H395   1.085       .  S
C397        C402   1.424       .  A
C397       C2166   1.483   1_455  A
C398        C399   1.428       .  A
C398       C2165   1.483       .  A
C399        C400   1.398       .  A
C399        H404   1.083       .  S
C400        C516   1.490       .  S
C400       C2169   1.402       .  A
C401        C436   1.495       .  S
C401        C402   1.392       .  A
C401       C2168   1.402   1_455  A
C402        H403   1.087       .  S
C405        C406   1.428       .  A
C405        C410   1.405       .  A
C405        F423   1.353       .  S
C406        C411   1.540       .  S
C406        C407   1.430       .  A
C407        C408   1.397       .  A
C407        F412   1.349       .  S
C408        C409   1.394       .  A
C408       F2192   1.359       .  S
C409        C410   1.395       .  A
C410        F413   1.354       .  S
C411        C414   1.428       .  A
C411        C418   1.416       .  A
C414        C415   1.409       .  A
C414        F419   1.341       .  S
C415        C416   1.400       .  A
C415        F421   1.356       .  S
C416        C417   1.412       .  A
C417        C418   1.397       .  A
C417        F420   1.360       .  S
C418        F422   1.354       .  S
F424       C2176   1.359       .  S
C425        C426   1.410       .  A
C425        C430   1.407       .  A
C425        F443   1.345       .  S
C426        C431   1.529       .  S
C426        C427   1.409       .  A
C427        C428   1.402       .  A
C427        F432   1.355       .  S
C428        C429   1.427       .  A
C428        F444   1.349       .  S
C429        C430   1.412       .  A
C430        F433   1.354       .  S
C431        C434   1.420       .  A
C431        C438   1.426       .  A
C434        C435   1.398       .  A
C434        F439   1.355       .  S
C435        C436   1.394       .  A
C435        F441   1.350       .  S
C436        C437   1.398       .  A
C437        C438   1.406       .  A
C437        F440   1.358       .  S
C438        F442   1.350       .  S
C445        C446   1.401       .  A
C445        C450   1.401       .  A
C445        F463   1.347       .  S
C446        C451   1.503       .  S
C446        C447   1.409       .  A
C447        C448   1.399       .  A
C447        F452   1.350       .  S
C448        C449   1.410       .  A
C448        F464   1.358       .  S
C449        C450   1.401       .  A
C450        F453   1.345       .  S
C451        C454   1.410       .  A
C451        C458   1.410       .  A
C454        C455   1.397       .  A
C454        F459   1.355       .  S
C455        C456   1.402       .  A
C455        F461   1.358       .  S
C456        C457   1.404       .  A
C457        C458   1.405       .  A
C457        F460   1.357       .  S
C458        F462   1.350       .  S
C465        C466   1.404       .  A
C465        C470   1.401       .  A
C465        F483   1.351       .  S
C466        C471   1.476       .  S
C466        C467   1.392       .  A
C467        C468   1.387       .  A
C467        F472   1.359       .  S
C468        C469   1.421       .  A
C468        F484   1.354       .  S
C469        C470   1.406       .  A
C470        F473   1.351       .  S
C471        C474   1.402       .  A
C471        C478   1.410       .  A
C474        C475   1.392       .  A
C474        F479   1.353       .  S
C475        C476   1.393       .  A
C475        F481   1.351       .  S
C476        C477   1.399       .  A
C477        C478   1.395       .  A
C477        F480   1.357       .  S
C478        F482   1.358       .  S
C485        C486   1.411       .  A
C485        C490   1.399       .  A
C485        F503   1.343       .  S
C486        C491   1.507       .  S
C486        C487   1.409       .  A
C487        C488   1.395       .  A
C487        F492   1.350       .  S
C488        C489   1.407       .  A
C488        F504   1.358       .  S
C489        C490   1.399       .  A
C490        F493   1.356       .  S
C491        C494   1.406       .  A
C491        C498   1.414       .  A
C494        C495   1.392       .  A
C494        F499   1.347       .  S
C495        C496   1.399       .  A
C495        F501   1.358       .  S
C496        C497   1.405       .  A
C497        C498   1.408       .  A
C497        F500   1.357       .  S
C498        F502   1.354       .  S
C505        C506   1.415       .  A
C505        C510   1.394       .  A
C505        F523   1.335       .  S
C506        C511   1.513       .  S
C506        C507   1.410       .  A
C507        C508   1.393       .  A
C507        F512   1.346       .  S
C508        C509   1.401       .  A
C508        F524   1.356       .  S
C509        C510   1.392       .  A
C510        F513   1.358       .  S
C511        C514   1.419       .  A
C511        C518   1.413       .  A
C514        C515   1.401       .  A
C514        F519   1.354       .  S
C515        C516   1.399       .  A
C515        F521   1.358       .  S
C516        C517   1.399       .  A
C517        C518   1.402       .  A
C517       F2288   1.355       .  S
C518        F522   1.355       .  S
F520       C2285   1.355       .  S
C525        C526   1.405       .  A
C525        C530   1.397       .  A
C525        F543   1.344       .  S
C526        C531   1.511       .  S
C526        C527   1.418       .  A
C527        C528   1.405       .  A
C527        F532   1.355       .  S
C528        C529   1.405       .  A
C528        F544   1.358       .  S
C529        C530   1.391       .  A
C530        F533   1.348       .  S
C531        C534   1.422       .  A
C531        C538   1.409       .  A
C534        C535   1.402       .  A
C534        F539   1.355       .  S
C535        C536   1.398       .  A
C535        F541   1.357       .  S
C536        C537   1.415       .  A
C537        C538   1.401       .  A
C537        F540   1.358       .  S
C538        F542   1.357       .  S
C545        C546   1.418       .  A
C545        C550   1.410       .  A
C545        F563   1.343       .  S
C546        C551   1.533       .  S
C546        C547   1.419       .  A
C547        C548   1.404       .  A
C547        F552   1.351       .  S
C548        C549   1.405       .  A
C548        F564   1.358       .  S
C549        C550   1.402       .  A
C550        F553   1.357       .  S
C551        C554   1.420       .  A
C551        C558   1.421       .  A
C554        C555   1.406       .  A
C554        F559   1.350       .  S
C555        C556   1.405       .  A
C555        F561   1.358       .  S
C556        C557   1.406       .  A
C557        C558   1.413       .  A
C557        F560   1.357       .  S
C558        F562   1.355       .  S
C565        C566   1.405       .  A
C565        C570   1.396       .  A
C565        F583   1.358       .  S
C566        C571   1.485       .  S
C566        C567   1.405       .  A
C567        C568   1.403       .  A
C567        F572   1.352       .  S
C568        C569   1.404       .  A
C568        F584   1.357       .  S
C569        C570   1.406       .  A
C570        F573   1.358   1_545  S
C571        C574   1.395       .  A
C571        C578   1.402       .  A
C574        C575   1.401       .  A
C574        F579   1.350       .  S
C575        C576   1.395       .  A
C575        F581   1.352       .  S
C576        C577   1.410       .  A
C577        C578   1.399       .  A
C577        F580   1.358       .  S
C578        F582   1.351       .  S
C585        C586   1.419       .  A
C585        C590   1.391       .  A
C585       F1487   1.349       .  S
C586        C591   1.511       .  S
C586        C587   1.424       .  A
C587        C588   1.392       .  A
C587        F592   1.348       .  S
C588        C589   1.391       .  A
C588        F604   1.359       .  S
C589        C590   1.394       .  A
C590       F1477   1.359       .  S
C591        C594   1.411       .  A
C591        C598   1.417       .  A
F593       C1474   1.359       .  S
C594        C595   1.393       .  A
C594        F599   1.355       .  S
C595        C596   1.411       .  A
C595        F601   1.358       .  S
C596        C597   1.399       .  A
C597        C598   1.400       .  A
C597        F600   1.357       .  S
C598        F602   1.343       .  S
F603       C1469   1.350       .  S
C605        C606   1.424       .  A
C605        C610   1.394       .  A
C605        F623   1.347       .  S
C606        C611   1.524       .  S
C606        C607   1.421       .  A
C607        C608   1.401       .  A
C607        F612   1.351       .  S
C608        C609   1.397       .  A
C608        F624   1.358       .  S
C609        C610   1.394       .  A
C610        F613   1.359       .  S
C611        C614   1.416       .  A
C611        C618   1.425       .  A
C614        C615   1.397       .  A
C614        F619   1.355       .  S
C615        C616   1.406       .  A
C615        F621   1.360       .  S
C616        C617   1.396       .  A
C617        C618   1.406       .  A
C617        F620   1.355       .  S
C618        F622   1.352       .  S
C625        C626   1.411       .  A
C625        C630   1.393       .  A
C625        F643   1.358       .  S
C626        C631   1.495       .  S
C626        C627   1.411       .  A
C627        C628   1.400       .  A
C627        F632   1.354       .  S
C628        C629   1.397       .  A
C628        F644   1.354       .  S
C629        C630   1.402       .  A
C630        F633   1.358       .  S
C631        C634   1.412       .  A
C631        C638   1.411       .  A
C634        C635   1.398       .  A
C634        F639   1.358       .  S
C635        C636   1.398       .  A
C635        F641   1.358       .  S
C636        C637   1.401       .  A
C637        C638   1.397       .  A
C637        F640   1.358       .  S
C638        F642   1.354       .  S
C645        C646   1.412       .  A
C645        C650   1.389       .  A
C645        F663   1.349       .  S
C646        C651   1.483       .  S
C646        C647   1.403       .  A
C647        C648   1.382       .  A
C647        F652   1.346       .  S
C648        C649   1.387       .  A
C648        F664   1.353       .  S
C649        C650   1.397       .  A
C650        F653   1.358       .  S
C651        C654   1.407       .  A
C651        C658   1.423       .  A
C654        C655   1.387       .  A
C654        F659   1.356       .  S
C655        C656   1.402       .  A
C655        F661   1.358       .  S
C656        C657   1.387       .  A
C657        C658   1.384       .  A
C657        F660   1.358       .  S
C658        F662   1.354       .  S
C665        C666   1.403       .  A
C665        C670   1.393       .  A
C665        F683   1.353       .  S
C666        C671   1.494       .  S
C666        C667   1.404       .  A
C667        C668   1.409       .  A
C667        F672   1.346       .  S
C668        C669   1.403       .  A
C668        F684   1.355       .  S
C669        C670   1.408       .  A
C670        F673   1.356       .  S
C671        C674   1.406       .  A
C671        C678   1.407       .  A
C674        C675   1.403       .  A
C674        F679   1.354       .  S
C675        C676   1.402       .  A
C675        F681   1.358       .  S
C676        C677   1.401       .  A
C677        C678   1.397       .  A
C677       F1564   1.358       .  S
C678        F682   1.350       .  S
F680       C1561   1.358   1_545  S
C685        C686   1.415       .  A
C685        C690   1.396       .  A
C685        F703   1.341       .  S
C686        C691   1.518       .  S
C686        C687   1.420       .  A
C687        C688   1.392       .  A
C687        F692   1.345       .  S
C688        C689   1.396       .  A
C688       F1588   1.358       .  S
C689        C690   1.393       .  A
C690        F693   1.357       .  S
C691        C694   1.423       .  A
C691        C698   1.409       .  A
C694        C695   1.408       .  A
C694        F699   1.352       .  S
C695        C696   1.400       .  A
C695        F701   1.357       .  S
C696        C697   1.412       .  A
C697        C698   1.394       .  A
C697        F700   1.359       .  S
C698        F702   1.355       .  S
F704       C1572   1.358       .  S
C705        C706   1.412       .  A
C705        C710   1.401       .  A
C705        F723   1.352       .  S
C706        C711   1.494       .  S
C706        C707   1.413       .  A
C707        C708   1.390       .  A
C707        F712   1.353       .  S
C708        C709   1.399       .  A
C708        F724   1.359       .  S
C709        C710   1.401       .  A
C710        F713   1.355       .  S
C711        C714   1.410       .  A
C711        C718   1.412       .  A
C714        C715   1.394       .  A
C714        F719   1.351       .  S
C715        C716   1.401       .  A
C715        F721   1.358       .  S
C716        C717   1.398       .  A
C717        C718   1.396       .  A
C717        F720   1.358       .  S
C718        F722   1.353       .  S
C725        C726   1.411       .  A
C725        C730   1.404       .  A
C725        F743   1.349       .  S
C726        C731   1.513       .  S
C726        C727   1.413   1_455  A
C727        C728   1.407       .  A
C727        F732   1.355       .  S
C728        C729   1.409   1_655  A
C728        F744   1.356       .  S
C729        C730   1.400       .  A
C730        F733   1.355       .  S
C731        C734   1.414       .  A
C731        C738   1.417       .  A
C734        C735   1.400       .  A
C734        F739   1.357       .  S
C735        C736   1.399       .  A
C735        F741   1.348       .  S
C736        C737   1.406       .  A
C737        C738   1.412       .  A
C737        F740   1.357   1_455  S
C738        F742   1.357   1_455  S
C745        C746   1.408       .  A
C745        C750   1.407       .  A
C745        F763   1.348       .  S
C746        C751   1.495       .  S
C746        C747   1.400       .  A
C747        C748   1.405       .  A
C747        F752   1.358       .  S
C748        C749   1.422       .  A
C748        F764   1.357       .  S
C749        C750   1.398       .  A
C750        F753   1.355   1_545  S
C751        C754   1.398       .  A
C751        C758   1.403       .  A
C754        C755   1.407       .  A
C754        F759   1.349       .  S
C755        C756   1.405       .  A
C755        F761   1.354       .  S
C756        C757   1.412       .  A
C757        C758   1.404       .  A
C757        F760   1.356   1_545  S
C758        F762   1.356   1_545  S
C765        C766   1.396       .  A
C765        C770   1.402       .  A
C765        F783   1.338       .  S
C766        C771   1.507       .  S
C766        C767   1.406       .  A
C767        C768   1.408       .  A
C767        F772   1.349   1_545  S
C768        C769   1.412       .  A
C768        F784   1.357   1_545  S
C769        C770   1.403       .  A
C770        F773   1.351       .  S
C771        C774   1.410       .  A
C771        C778   1.411       .  A
C774        C775   1.402       .  A
C774        F779   1.356       .  S
C775        C776   1.406       .  A
C775        F781   1.357       .  S
C776        C777   1.412       .  A
C777        C778   1.414       .  A
C777        F780   1.357       .  S
C778        F782   1.357       .  S
C785        C786   1.401       .  A
C785        C790   1.402       .  A
C785        F803   1.348       .  S
C786        C791   1.507       .  S
C786        C787   1.406       .  A
C787        C788   1.408       .  A
C787        F792   1.341       .  S
C788        C789   1.401       .  A
C788        F804   1.356       .  S
C789        C790   1.415       .  A
C790        F793   1.359       .  S
C791        C794   1.411       .  A
C791        C798   1.403       .  A
C794        C795   1.413       .  A
C794        F799   1.358       .  S
C795        C796   1.413       .  A
C795        F801   1.357       .  S
C796        C797   1.404       .  A
C797        C798   1.406       .  A
C797        F800   1.355       .  S
C798        F802   1.350       .  S
C805        C806   1.412       .  A
C805        C810   1.400       .  A
C805        F823   1.358       .  S
C806        C811   1.493       .  S
C806        C807   1.410       .  A
C807        C808   1.396       .  A
C807        F812   1.357       .  S
C808        C809   1.402       .  A
C808        F824   1.358       .  S
C809        C810   1.400       .  A
C810        F813   1.356       .  S
C811        C814   1.404       .  A
C811        C818   1.406       .  A
C814        C815   1.401       .  A
C814        F819   1.356       .  S
C815        C816   1.404       .  A
C815        F821   1.348       .  S
C816        C817   1.393       .  A
C817        C818   1.390       .  A
C817        F820   1.353       .  S
C818        F822   1.343       .  S
C825        C826   1.412       .  A
C825        C830   1.397       .  A
C825        F843   1.352       .  S
C826        C831   1.515       .  S
C826        C827   1.418       .  A
C827        C828   1.407       .  A
C827        F832   1.350       .  S
C828        C829   1.402       .  A
C828        F844   1.357       .  S
C829        C830   1.403       .  A
C830        F833   1.354       .  S
C831        C834   1.417       .  A
C831        C838   1.410       .  A
C834        C835   1.408       .  A
C834        F839   1.356       .  S
C835        C836   1.405       .  A
C835        F841   1.358       .  S
C836        C837   1.403       .  A
C837        C838   1.401       .  A
C837        F840   1.358       .  S
C838        F842   1.349       .  S
C845        C846   1.404       .  A
C845        C850   1.387       .  A
C845        F863   1.357       .  S
C846        C851   1.473       .  S
C846        C847   1.405       .  A
C847        C848   1.394       .  A
C847        F852   1.355       .  S
C848        C849   1.392       .  A
C848        F864   1.353       .  S
C849        C850   1.404       .  A
C850        F853   1.357       .  S
C851        C854   1.409       .  A
C851        C858   1.405       .  A
C854        C855   1.395       .  A
C854        F859   1.356       .  S
C855        C856   1.399       .  A
C855        F861   1.357       .  S
C856        C857   1.390       .  A
C857        C858   1.378       .  A
C857       F2628   1.358       .  S
C858        F862   1.348       .  S
F860       C2625   1.358       .  S
C865        C866   1.417       .  A
C865        C870   1.403       .  A
C865        F883   1.349       .  S
C866        C871   1.516       .  S
C866        C867   1.411       .  A
C867        C868   1.403       .  A
C867        F872   1.357       .  S
C868        C869   1.414       .  A
C868        F884   1.358       .  S
C869        C870   1.401       .  A
C870        F873   1.357       .  S
C871        C874   1.412       .  A
C871        C878   1.417       .  A
C874        C875   1.402       .  A
C874        F879   1.351       .  S
C875        C876   1.396       .  A
C875        F881   1.351       .  S
C876        C877   1.404       .  A
C877        C878   1.405       .  A
C877        F880   1.358       .  S
C878        F882   1.357       .  S
O885       Ni891   1.996       .  S
O885        C906   1.305       .  A
O886       Ni909   1.929       .  S
O886        C895   1.304       .  A
O887       Ni891   1.827       .  S
O887       Ni909   1.819   1_556  S
O887       Ni903   1.876       .  S
O887        H910   0.966       .  S
C888        O905   1.310       .  A
C888        O897   1.317       .  A
C888       C1080   1.526       .  S
O889       Ni908   1.976   1_554  S
O889        C895   1.294       .  A
O890       Ni908   1.929       .  S
O890        C892   1.268       .  A
Ni891       O894   1.983   1_556  S
Ni891       O896   2.010   1_556  S
C892        O902   1.294       .  A
C892       C1055   1.501       .  S
O893       Ni909   1.967       .  S
O893        C899   1.312       .  A
O894        C899   1.300       .  A
C895       C1265   1.521       .  S
O896        C898   1.291       .  A
O897       Ni908   2.035       .  S
C898        O904   1.286       .  A
C898       C1282   1.547       .  S
C899       C1249   1.513       .  S
H900        O901   0.956   1_554  S
O901       Ni909   1.858   1_556  S
O901       Ni903   1.852       .  S
O901       Ni908   1.804       .  S
O902       Ni903   1.957       .  S
Ni903       O907   1.960       .  S
Ni903       O905   1.975       .  S
O904       Ni909   1.962       .  S
C906        O907   1.311       .  A
C906       C1072   1.530       .  S
O911       Ni917   1.966       .  S
O911        C932   1.298       .  A
O912       Ni935   1.994       .  S
O912        C921   1.318       .  A
O913       Ni917   1.788       .  S
O913       Ni935   1.898       .  S
O913       Ni929   1.898       .  S
O913        H936   0.963       .  S
C914        O931   1.323       .  A
C914        O923   1.294       .  A
C914       C1039   1.513       .  S
O915       Ni934   1.944       .  S
O915        C921   1.286       .  A
O916       Ni934   1.997       .  S
O916        C918   1.274       .  A
Ni917       O920   2.037       .  S
Ni917       O922   1.934       .  S
C918        O928   1.261       .  A
C918       C1048   1.538       .  S
O919       Ni935   1.934       .  S
O919        C925   1.315       .  A
O920        C925   1.323       .  A
C921       C1274   1.527       .  S
O922        C924   1.276       .  A
O923       Ni934   1.956       .  S
C924        O930   1.286       .  A
C924       C1258   1.498       .  S
C925       C1207   1.517       .  S
H926        O927   0.967       .  S
O927       Ni935   1.874       .  S
O927       Ni929   1.874       .  S
O927       Ni934   1.894       .  S
O928       Ni929   1.907       .  S
Ni929       O933   1.959       .  S
Ni929       O931   1.992       .  S
O930       Ni935   1.941       .  S
C932        O933   1.311       .  A
C932       C1063   1.503       .  S
N937        H969   1.042       .  S
N937        C941   1.347   1_545  A
N938        C945   1.352       .  A
N938        C946   1.343       .  A
N939        H970   1.040       .  S
N939        C943   1.355   1_545  A
N940        C947   1.341       .  A
N940        C948   1.338       .  A
C941        C949   1.377       .  A
C941        C957   1.407       .  A
C942        C958   1.396       .  A
C942        C950   1.379       .  A
C943        C951   1.381       .  A
C943        C960   1.422       .  A
C944        C959   1.429       .  A
C944        C952   1.388       .  A
C945        C957   1.414       .  A
C945        C953   1.384       .  A
C946        C960   1.409       .  A
C946        C954   1.383       .  A
C947        C955   1.380       .  A
C947        C958   1.387       .  A
C948        C956   1.387       .  A
C948        C959   1.401       .  A
C949        H961   1.066       .  S
C950        H962   1.073       .  S
C951        H963   1.078       .  S
C952        H964   1.076       .  S
C953        C954   1.388       .  A
C953        H965   1.082       .  S
C954        H966   1.080       .  S
C955        C956   1.376       .  A
C955        H967   1.083       .  S
C956        H968   1.071       .  S
C957       C1753   1.503       .  S
C958       C1733   1.464       .  S
C959       C1700   1.490       .  S
C960       C1713   1.493       .  S
N971       H1003   1.040       .  S
N971        C976   1.351       .  A
N971        C975   1.359       .  A
N972        C979   1.349       .  A
N972        C980   1.353       .  A
N973       H1004   1.041       .  S
N973        C978   1.348       .  A
N973        C977   1.343       .  A
N974        C981   1.351       .  A
N974        C982   1.353       .  A
C975        C983   1.395       .  A
C975        C991   1.433       .  A
C976        C992   1.412       .  A
C976        C984   1.381       .  A
C977        C985   1.382       .  A
C977        C994   1.398       .  A
C978        C993   1.412       .  A
C978        C986   1.391       .  A
C979        C991   1.434       .  A
C979        C987   1.394       .  A
C980        C994   1.418       .  A
C980        C988   1.382       .  A
C981        C989   1.385       .  A
C981        C992   1.417       .  A
C982        C990   1.390       .  A
C982        C993   1.430       .  A
C983        C984   1.364       .  A
C983        H995   1.075       .  S
C984        H996   1.082       .  S
C985        C986   1.372       .  A
C985        H997   1.083       .  S
C986        H998   1.077       .  S
C987        C988   1.393       .  A
C987        H999   1.080       .  S
C988       H1000   1.082       .  S
C989        C990   1.392       .  A
C989       H1001   1.082       .  S
C990       H1002   1.082       .  S
C991       C1653   1.511       .  S
C992       C1673   1.504       .  S
C993       C1613   1.498       .  S
C994       C1633   1.504       .  S
N1005      H1037   1.039       .  S
N1005      C1010   1.347       .  A
N1005      C2777   1.351       .  A
N1006      C1013   1.346       .  A
N1006      C1014   1.347       .  A
N1007      H1038   1.041       .  S
N1007      C1012   1.354       .  A
N1007      C2779   1.354       .  A
N1008      C1015   1.334       .  A
N1008      C1016   1.338       .  A
C1009      N2773   1.351   1_455  A
C1009      C1017   1.386       .  A
C1009      C1025   1.413       .  A
C1010      C1026   1.407       .  A
C1010      C1018   1.384       .  A
C1011      N2775   1.354   1_455  A
C1011      C1019   1.377   1_455  A
C1011      C1028   1.412       .  A
C1012      C1027   1.414       .  A
C1012      C1020   1.370       .  A
C1013      C1025   1.415       .  A
C1013      C1021   1.387       .  A
C1014      C1028   1.415       .  A
C1014      C1022   1.387       .  A
C1015      C1023   1.386       .  A
C1015      C1026   1.389       .  A
C1016      C1024   1.385       .  A
C1016      C1027   1.391       .  A
C1017      C2786   1.370   1_455  A
C1017      H1029   1.081       .  S
C1018      C2785   1.370       .  A
C1018      H1030   1.082       .  S
C1019      C2788   1.356       .  A
C1019      H1031   1.077   1_655  S
C1020      C2787   1.356       .  A
C1020      H1032   1.065       .  S
C1021      C1022   1.394       .  A
C1021      H1033   1.082       .  S
C1022      H1034   1.082       .  S
C1023      C1024   1.382       .  A
C1023      H1035   1.082       .  S
C1024      H1036   1.082       .  S
C1025      C1553   1.492       .  S
C1026      C1540   1.460       .  S
C1027      C1593   1.485       .  S
C1028      C1580   1.510       .  S
C1039      C2808   1.471       .  A
C1039      C1044   1.399       .  A
C1040      C1108   1.532       .  S
C1040      C2807   1.471   1_455  A
C1040      C1041   1.437       .  A
C1041      C1042   1.412       .  A
C1041      H1046   1.083       .  S
C1042      C1680   1.513       .  S
C1042      C2811   1.402   1_455  A
C1043      C1740   1.453       .  S
C1043      C2810   1.402       .  A
C1043      C1044   1.378       .  A
C1044      H1045   1.087       .  S
C1047      C1090   1.510       .  S
C1047      C1052   1.415       .  A
C1048      C1049   1.438       .  A
C1049      C1050   1.404       .  A
C1049      H1054   1.085       .  S
C1050      C1660   1.507       .  S
C1051      C1573   1.478       .  S
C1051      C1052   1.383       .  A
C1052      H1053   1.088       .  S
C1055      C1056   1.451       .  A
C1055      C1060   1.397       .  A
C1056      C1134   1.497       .  S
C1056      C1057   1.423       .  A
C1057      C1058   1.389       .  A
C1057      H1062   1.085       .  S
C1058      C1720   1.492       .  S
C1058      C1059   1.403       .  A
C1059      C1533   1.460       .  S
C1059      C1060   1.384       .  A
C1060      H1061   1.077       .  S
C1063      C1064   1.453       .  A
C1063      C1068   1.411       .  A
C1064      C1094   1.492       .  S
C1064      C1065   1.418       .  A
C1065      C1066   1.397       .  A
C1065      H1070   1.086       .  S
C1066      C1760   1.495       .  S
C1066      C1067   1.405       .  A
C1067      C1600   1.474       .  S
C1067      C1068   1.394       .  A
C1068      H1069   1.086       .  S
C1071      C1116   1.512       .  S
C1071      C1076   1.415       .  A
C1072      C1073   1.426       .  A
C1073      C1074   1.405       .  A
C1073      H1078   1.082       .  S
C1074      C1640   1.503       .  S
C1075      C1560   1.484       .  S
C1075      C1076   1.397       .  A
C1076      H1077   1.085       .  S
C1079      C1120   1.544       .  S
C1079      C2848   1.461   1_455  A
C1079      C1084   1.435       .  A
C1080      C2847   1.461       .  A
C1080      C1081   1.413       .  A
C1081      C1082   1.400       .  A
C1081      H1086   1.076       .  S
C1082      C1693   1.478       .  S
C1082      C2851   1.402       .  A
C1083      C1620   1.501       .  S
C1083      C2850   1.402   1_455  A
C1083      C1084   1.394       .  A
C1084      H1085   1.083       .  S
O1087     Ni1093   1.952       .  S
O1087      C1108   1.292       .  A
O1088     Ni1111   1.935       .  S
O1088      C1097   1.304       .  A
O1089     Ni1093   1.895       .  S
O1089     Ni1111   1.862       .  S
O1089     Ni1105   1.879       .  S
O1089      H1112   0.967       .  S
C1090      O1107   1.316       .  A
C1090      O1099   1.328       .  A
O1091     Ni1110   1.981       .  S
O1091      C1097   1.304       .  A
O1092     Ni1110   1.924       .  S
O1092      C1094   1.274       .  A
Ni1093     O1096   1.975       .  S
Ni1093     O1098   2.005       .  S
C1094      O1104   1.290       .  A
O1095     Ni1111   1.986       .  S
O1095      C1101   1.318       .  A
O1096      C1101   1.299       .  A
C1097      C1257   1.498       .  S
O1098      C1100   1.274       .  A
O1099     Ni1110   2.051       .  S
C1100      O1106   1.257       .  A
C1100      C1208   1.539       .  S
C1101      C1273   1.522       .  S
H1102      O1103   0.961       .  S
O1103     Ni1111   1.878       .  S
O1103     Ni1105   1.888       .  S
O1103     Ni1110   1.767       .  S
O1104     Ni1105   1.944       .  S
Ni1105     O1109   2.001       .  S
Ni1105     O1107   1.921       .  S
O1106     Ni1111   1.888       .  S
C1108      O1109   1.318       .  A
O1113     Ni1119   1.972       .  S
O1113      C1134   1.296       .  A
O1114     Ni1137   1.952       .  S
O1114      C1123   1.310       .  A
O1115     Ni1119   1.805       .  S
O1115     Ni1137   1.842   1_556  S
O1115     Ni1131   1.862       .  S
O1115      H1138   0.954       .  S
C1116      O1133   1.307       .  A
C1116      O1125   1.304       .  A
O1117     Ni1136   1.988   1_554  S
O1117      C1123   1.304       .  A
O1118     Ni1136   2.004       .  S
O1118      C1120   1.286       .  A
Ni1119     O1122   2.032   1_556  S
Ni1119     O1124   1.939   1_556  S
C1120      O1130   1.274       .  A
O1121     Ni1137   1.971       .  S
O1121      C1127   1.305       .  A
O1122      C1127   1.312       .  A
C1123      C1250   1.515       .  S
O1124      C1126   1.275       .  A
O1125     Ni1136   1.990       .  S
C1126      O1132   1.297       .  A
C1126      C1266   1.511       .  S
C1127      C1281   1.527       .  S
H1128      O1129   0.967       .  S
O1129     Ni1137   1.871   1_556  S
O1129     Ni1131   1.824       .  S
O1129     Ni1136   1.829       .  S
O1130     Ni1131   1.925       .  S
Ni1131     O1135   1.918       .  S
Ni1131     O1133   1.956       .  S
O1132     Ni1137   1.958       .  S
C1134      O1135   1.299       .  A
N1139      H1171   1.038       .  S
N1139      C1144   1.350       .  A
N1139      C2911   1.350   1_455  A
N1140      C1147   1.348       .  A
N1140      C1148   1.347       .  A
N1141      H1172   1.040       .  S
N1141      C1146   1.353       .  A
N1141      C2913   1.351   1_455  A
N1142      C1149   1.344       .  A
N1142      C1150   1.346       .  A
C1143      N2907   1.350       .  A
C1143      C1151   1.386       .  A
C1143      C1159   1.412       .  A
C1144      C1160   1.412       .  A
C1144      C1152   1.387       .  A
C1145      N2909   1.351       .  A
C1145      C1153   1.380       .  A
C1145      C1162   1.410       .  A
C1146      C1161   1.408       .  A
C1146      C1154   1.380       .  A
C1147      C1159   1.415       .  A
C1147      C1155   1.388       .  A
C1148      C1162   1.410       .  A
C1148      C1156   1.383       .  A
C1149      C1157   1.387       .  A
C1149      C1160   1.408       .  A
C1150      C1158   1.383       .  A
C1150      C1161   1.405       .  A
C1151      C2920   1.369       .  A
C1151      H1163   1.081       .  S
C1152      C2919   1.369   1_455  A
C1152      H1164   1.080       .  S
C1153      C2922   1.351       .  A
C1153      H1165   1.076       .  S
C1154      C2921   1.351   1_455  A
C1154      H1166   1.081       .  S
C1155      C1156   1.384       .  A
C1155      H1167   1.079       .  S
C1156      H1168   1.083       .  S
C1157      C1158   1.386       .  A
C1157      H1169   1.082       .  S
C1158      H1170   1.081       .  S
C1159      C1480   1.497       .  S
C1160      C1513   1.476       .  S
C1161      C1500   1.495       .  S
C1162      C1460   1.491       .  S
N1173      H1205   1.042       .  S
N1173      C1178   1.347       .  A
N1173      C1177   1.350       .  A
N1174      C1181   1.349       .  A
N1174      C1182   1.341       .  A
N1175      H1206   1.040       .  S
N1175      C1180   1.354       .  A
N1175      C1179   1.352       .  A
N1176      C1183   1.353       .  A
N1176      C1184   1.351       .  A
C1177      C1185   1.380       .  A
C1177      C1193   1.406       .  A
C1178      C1194   1.406       .  A
C1178      C1186   1.382       .  A
C1179      C1187   1.383       .  A
C1179      C1196   1.410       .  A
C1180      C1195   1.415       .  A
C1180      C1188   1.382       .  A
C1181      C1193   1.404       .  A
C1181      C1189   1.381       .  A
C1182      C1196   1.406       .  A
C1182      C1190   1.381       .  A
C1183      C1191   1.382       .  A
C1183      C1194   1.417       .  A
C1184      C1192   1.377       .  A
C1184      C1195   1.417       .  A
C1185      C1186   1.362       .  A
C1185      H1197   1.070       .  S
C1186      H1198   1.077       .  S
C1187      C1188   1.363       .  A
C1187      H1199   1.081       .  S
C1188      H1200   1.073       .  S
C1189      C1190   1.378       .  A
C1189      H1201   1.079       .  S
C1190      H1202   1.075       .  S
C1191      C1192   1.390       .  A
C1191      H1203   1.079   1_565  S
C1192      H1204   1.075   1_565  S
C1193      C1373   1.496       .  S
C1194      C1420   1.500       .  S
C1195      C1433   1.509       .  S
C1196      C1393   1.480       .  S
C1207      C1212   1.425       .  A
C1208      C1209   1.432       .  A
C1209      C1210   1.387       .  A
C1209      H1214   1.085       .  S
C1210      C1413   1.493       .  S
C1211      C1453   1.485       .  S
C1211      C1212   1.398       .  A
C1212      H1213   1.086       .  S
N1215      H1247   1.046       .  S
N1215      C1220   1.342       .  A
N1216      C1223   1.353       .  A
N1216      C1224   1.346       .  A
N1217      H1248   1.041       .  S
N1217      C1222   1.359       .  A
N1218      C1225   1.343       .  A
N1218      C1226   1.336       .  A
C1219      C1227   1.386       .  A
C1219      C1235   1.397       .  A
C1220      C1236   1.391       .  A
C1220      C1228   1.381       .  A
C1221      C1229   1.383       .  A
C1221      C1238   1.419       .  A
C1222      C1237   1.424       .  A
C1222      C1230   1.376       .  A
C1223      C1235   1.422       .  A
C1223      C1231   1.380       .  A
C1224      C1238   1.421       .  A
C1224      C1232   1.386       .  A
C1225      C1233   1.385       .  A
C1225      C1236   1.407       .  A
C1226      C1234   1.390       .  A
C1226      C1237   1.411       .  A
C1227      H1239   1.081       .  S
C1228      H1240   1.082       .  S
C1229      H1241   1.080       .  S
C1230      H1242   1.065       .  S
C1231      C1232   1.390       .  A
C1231      H1243   1.078       .  S
C1232      H1244   1.076       .  S
C1233      C1234   1.387       .  A
C1233      H1245   1.078       .  S
C1234      H1246   1.076       .  S
C1235      C1313   1.536       .  S
C1236      C1353   1.494       .  S
C1237      C1333   1.500       .  S
C1238      C1300   1.514       .  S
C1249      C1254   1.406       .  A
C1250      C1251   1.433       .  A
C1251      C1252   1.400       .  A
C1251      H1256   1.084       .  S
C1252      C1440   1.512       .  S
C1253      C1473   1.464       .  S
C1253      C1254   1.386       .  A
C1254      H1255   1.084       .  S
C1257      C1258   1.446       .  A
C1257      C1262   1.406       .  A
C1258      C1259   1.419       .  A
C1259      C1260   1.408       .  A
C1259      H1264   1.085       .  S
C1260      C1340   1.492       .  S
C1260      C1261   1.411       .  A
C1261      C1493   1.480       .  S
C1261      C1262   1.384       .  A
C1262      H1263   1.085       .  S
C1265      C1266   1.463       .  A
C1265      C1270   1.413       .  A
C1266      C1267   1.418       .  A
C1267      C1268   1.393       .  A
C1267      H1272   1.084       .  S
C1268      C1520   1.475       .  S
C1268      C1269   1.396       .  A
C1269      C1360   1.468       .  S
C1269      C1270   1.377       .  A
C1270      H1271   1.083       .  S
C1273      C3042   1.474   1_455  A
C1273      C1278   1.418       .  A
C1274      C3041   1.474       .  A
C1274      C1275   1.422       .  A
C1275      C1276   1.394       .  A
C1275      H1280   1.083       .  S
C1276      C1380   1.487       .  S
C1276      C3045   1.403       .  A
C1277      C1293   1.489       .  S
C1277      C3044   1.403   1_455  A
C1277      C1278   1.393       .  A
C1278      H1279   1.085       .  S
C1281      C3050   1.484   1_455  A
C1281      C1286   1.426       .  A
C1282      C3049   1.484       .  A
C1282      C1283   1.428       .  A
C1283      C1284   1.398       .  A
C1283      H1288   1.083       .  S
C1284      C1400   1.489       .  S
C1284      C3053   1.401       .  A
C1285      C1320   1.497       .  S
C1285      C3052   1.401   1_455  A
C1285      C1286   1.393       .  A
C1286      H1287   1.087       .  S
C1289      C1290   1.426       .  A
C1289      C1294   1.405       .  A
C1289      F1307   1.355       .  S
C1290      C1295   1.535       .  S
C1290      C1291   1.429       .  A
C1291      C1292   1.398       .  A
C1291      F1296   1.350       .  S
C1292      C1293   1.395       .  A
C1292      F3076   1.358       .  S
C1293      C1294   1.396       .  A
C1294      F1297   1.353       .  S
C1295      C1298   1.426       .  A
C1295      C1302   1.415       .  A
C1298      C1299   1.408       .  A
C1298      F1303   1.343       .  S
C1299      C1300   1.402       .  A
C1299      F1305   1.356       .  S
C1300      C1301   1.413       .  A
C1301      C1302   1.397       .  A
C1301      F1304   1.359       .  S
C1302      F1306   1.355       .  S
F1308      C3060   1.358       .  S
C1309      C1310   1.411       .  A
C1309      C1314   1.409       .  A
C1309      F1327   1.347       .  S
C1310      C1315   1.529       .  S
C1310      C1311   1.409       .  A
C1311      C1312   1.402       .  A
C1311      F1316   1.355       .  S
C1312      C1313   1.427       .  A
C1312      F1328   1.349       .  S
C1313      C1314   1.412       .  A
C1314      F1317   1.354       .  S
C1315      C1318   1.419       .  A
C1315      C1322   1.426       .  A
C1318      C1319   1.398       .  A
C1318      F1323   1.356       .  S
C1319      C1320   1.394       .  A
C1319      F1325   1.350       .  S
C1320      C1321   1.399       .  A
C1321      C1322   1.407       .  A
C1321      F1324   1.358       .  S
C1322      F1326   1.350       .  S
C1329      C1330   1.402       .  A
C1329      C1334   1.402       .  A
C1329      F1347   1.347       .  S
C1330      C1335   1.502       .  S
C1330      C1331   1.409       .  A
C1331      C1332   1.398       .  A
C1331      F1336   1.350       .  S
C1332      C1333   1.408       .  A
C1332      F1348   1.359       .  S
C1333      C1334   1.401       .  A
C1334      F1337   1.345       .  S
C1335      C1338   1.409       .  A
C1335      C1342   1.410       .  A
C1338      C1339   1.399       .  A
C1338      F1343   1.356       .  S
C1339      C1340   1.404       .  A
C1339      F1345   1.358       .  S
C1340      C1341   1.405       .  A
C1341      C1342   1.406       .  A
C1341      F1344   1.357       .  S
C1342      F1346   1.351       .  S
C1349      C1350   1.405       .  A
C1349      C1354   1.399       .  A
C1349      F1367   1.352       .  S
C1350      C1355   1.475       .  S
C1350      C1351   1.393       .  A
C1351      C1352   1.386       .  A
C1351      F1356   1.359       .  S
C1352      C1353   1.419       .  A
C1352      F1368   1.355       .  S
C1353      C1354   1.405       .  A
C1354      F1357   1.352       .  S
C1355      C1358   1.402       .  A
C1355      C1362   1.411       .  A
C1358      C1359   1.391       .  A
C1358      F1363   1.353       .  S
C1359      C1360   1.393       .  A
C1359      F1365   1.351       .  S
C1360      C1361   1.398       .  A
C1361      C1362   1.395       .  A
C1361      F1364   1.357       .  S
C1362      F1366   1.358       .  S
C1369      C1370   1.409       .  A
C1369      C1374   1.400       .  A
C1369      F1387   1.342       .  S
C1370      C1375   1.506       .  S
C1370      C1371   1.408       .  A
C1371      C1372   1.395       .  A
C1371      F1376   1.350       .  S
C1372      C1373   1.408       .  A
C1372      F1388   1.358       .  S
C1373      C1374   1.401       .  A
C1374      F1377   1.356       .  S
C1375      C1378   1.406       .  A
C1375      C1382   1.412       .  A
C1378      C1379   1.392       .  A
C1378      F1383   1.345       .  S
C1379      C1380   1.399       .  A
C1379      F1385   1.358       .  S
C1380      C1381   1.403       .  A
C1381      C1382   1.406       .  A
C1381      F1384   1.357       .  S
C1382      F1386   1.352       .  S
C1389      C1390   1.414       .  A
C1389      C1394   1.394       .  A
C1389      F1407   1.335       .  S
C1390      C1395   1.511       .  S
C1390      C1391   1.409       .  A
C1391      C1392   1.394       .  A
C1391      F1396   1.346       .  S
C1392      C1393   1.402       .  A
C1392      F1408   1.356       .  S
C1393      C1394   1.391       .  A
C1394      F1397   1.358       .  S
C1395      C1398   1.418       .  A
C1395      C1402   1.412       .  A
C1398      C1399   1.401       .  A
C1398      F1403   1.354       .  S
C1399      C1400   1.400       .  A
C1399      F1405   1.358       .  S
C1400      C1401   1.399       .  A
C1401      C1402   1.401       .  A
C1401      F3172   1.355       .  S
C1402      F1406   1.354       .  S
F1404      C3169   1.355       .  S
C1409      C1410   1.407       .  A
C1409      C1414   1.399       .  A
C1409      F1427   1.345       .  S
C1410      C1415   1.513       .  S
C1410      C1411   1.418       .  A
C1411      C1412   1.404       .  A
C1411      F1416   1.355       .  S
C1412      C1413   1.405       .  A
C1412      F1428   1.358       .  S
C1413      C1414   1.392       .  A
C1414      F1417   1.350       .  S
C1415      C1418   1.422       .  A
C1415      C1422   1.410       .  A
C1418      C1419   1.404       .  A
C1418      F1423   1.355       .  S
C1419      C1420   1.400       .  A
C1419      F1425   1.357       .  S
C1420      C1421   1.413       .  A
C1421      C1422   1.401       .  A
C1421      F1424   1.358       .  S
C1422      F1426   1.356       .  S
C1429      C1430   1.420       .  A
C1429      C1434   1.411       .  A
C1429      F1447   1.343       .  S
C1430      C1435   1.537       .  S
C1430      C1431   1.420       .  A
C1431      C1432   1.405       .  A
C1431      F1436   1.351       .  S
C1432      C1433   1.406       .  A
C1432      F1448   1.358       .  S
C1433      C1434   1.402       .  A
C1434      F1437   1.357       .  S
C1435      C1438   1.420       .  A
C1435      C1442   1.421       .  A
C1438      C1439   1.406       .  A
C1438      F1443   1.348       .  S
C1439      C1440   1.405       .  A
C1439      F1445   1.358   1_565  S
C1440      C1441   1.406       .  A
C1441      C1442   1.414       .  A
C1441      F1444   1.357       .  S
C1442      F1446   1.354       .  S
C1449      C1450   1.406       .  A
C1449      C1454   1.399       .  A
C1449      F1467   1.358       .  S
C1450      C1455   1.488       .  S
C1450      C1451   1.404       .  A
C1451      C1452   1.402       .  A
C1451      F1456   1.350       .  S
C1452      C1453   1.403       .  A
C1452      F1468   1.357       .  S
C1453      C1454   1.408       .  A
C1454      F1457   1.359       .  S
C1455      C1458   1.395       .  A
C1455      C1462   1.402       .  A
C1458      C1459   1.403       .  A
C1458      F1463   1.351       .  S
C1459      C1460   1.397       .  A
C1459      F1465   1.353       .  S
C1460      C1461   1.411       .  A
C1461      C1462   1.400       .  A
C1461      F1464   1.358       .  S
C1462      F1466   1.351       .  S
C1469      C1470   1.419       .  A
C1469      C1474   1.391       .  A
C1470      C1475   1.510       .  S
C1470      C1471   1.423       .  A
C1471      C1472   1.390       .  A
C1471      F1476   1.348       .  S
C1472      C1473   1.390       .  A
C1472      F1488   1.359       .  S
C1473      C1474   1.394       .  A
C1475      C1478   1.410       .  A
C1475      C1482   1.417       .  A
C1478      C1479   1.392       .  A
C1478      F1483   1.356       .  S
C1479      C1480   1.412       .  A
C1479      F1485   1.358       .  S
C1480      C1481   1.400       .  A
C1481      C1482   1.400       .  A
C1481      F1484   1.357       .  S
C1482      F1486   1.344       .  S
C1489      C1490   1.423       .  A
C1489      C1494   1.391       .  A
C1489      F1507   1.346       .  S
C1490      C1495   1.523       .  S
C1490      C1491   1.422       .  A
C1491      C1492   1.401       .  A
C1491      F1496   1.350       .  S
C1492      C1493   1.397       .  A
C1492      F1508   1.358       .  S
C1493      C1494   1.393       .  A
C1494      F1497   1.359       .  S
C1495      C1498   1.416       .  A
C1495      C1502   1.425       .  A
C1498      C1499   1.397       .  A
C1498      F1503   1.355       .  S
C1499      C1500   1.407       .  A
C1499      F1505   1.360       .  S
C1500      C1501   1.396       .  A
C1501      C1502   1.406       .  A
C1501      F1504   1.355       .  S
C1502      F1506   1.352       .  S
C1509      C1510   1.411       .  A
C1509      C1514   1.393       .  A
C1509      F1527   1.358       .  S
C1510      C1515   1.494       .  S
C1510      C1511   1.411       .  A
C1511      C1512   1.400       .  A
C1511      F1516   1.354       .  S
C1512      C1513   1.398       .  A
C1512      F1528   1.355       .  S
C1513      C1514   1.402       .  A
C1514      F1517   1.358       .  S
C1515      C1518   1.411       .  A
C1515      C1522   1.411       .  A
C1518      C1519   1.398       .  A
C1518      F1523   1.358       .  S
C1519      C1520   1.398       .  A
C1519      F1525   1.358       .  S
C1520      C1521   1.400       .  A
C1521      C1522   1.397       .  A
C1521      F1524   1.358       .  S
C1522      F1526   1.354       .  S
C1529      C1530   1.414       .  A
C1529      C1534   1.391       .  A
C1529      F1547   1.349       .  S
C1530      C1535   1.490       .  S
C1530      C1531   1.404       .  A
C1531      C1532   1.384       .  A
C1531      F1536   1.346       .  S
C1532      C1533   1.389       .  A
C1532      F1548   1.354       .  S
C1533      C1534   1.397       .  A
C1534      F1537   1.358       .  S
C1535      C1538   1.408       .  A
C1535      C1542   1.424       .  A
C1538      C1539   1.389       .  A
C1538      F1543   1.356       .  S
C1539      C1540   1.403       .  A
C1539      F1545   1.358       .  S
C1540      C1541   1.387       .  A
C1541      C1542   1.385       .  A
C1541      F1544   1.358       .  S
C1542      F1546   1.354       .  S
C1549      C1550   1.403       .  A
C1549      C1554   1.393       .  A
C1549      F1567   1.354       .  S
C1550      C1555   1.493       .  S
C1550      C1551   1.405       .  A
C1551      C1552   1.409       .  A
C1551      F1556   1.349       .  S
C1552      C1553   1.405       .  A
C1552      F1568   1.355       .  S
C1553      C1554   1.408       .  A
C1554      F1557   1.357       .  S
C1555      C1558   1.405       .  A
C1555      C1562   1.406       .  A
C1558      C1559   1.403       .  A
C1558      F1563   1.353       .  S
C1559      C1560   1.402       .  A
C1559      F1565   1.358       .  S
C1560      C1561   1.402       .  A
C1561      C1562   1.397       .  A
C1562      F1566   1.350       .  S
C1569      C1570   1.416       .  A
C1569      C1574   1.397       .  A
C1569      F1587   1.343       .  S
C1570      C1575   1.518       .  S
C1570      C1571   1.419       .  A
C1571      C1572   1.392       .  A
C1571      F1576   1.346       .  S
C1572      C1573   1.396       .  A
C1573      C1574   1.394       .  A
C1574      F1577   1.358       .  S
C1575      C1578   1.421       .  A
C1575      C1582   1.408       .  A
C1578      C1579   1.409       .  A
C1578      F1583   1.349       .  S
C1579      C1580   1.402       .  A
C1579      F1585   1.357       .  S
C1580      C1581   1.415       .  A
C1581      C1582   1.395       .  A
C1581      F1584   1.359       .  S
C1582      F1586   1.355       .  S
C1589      C1590   1.412       .  A
C1589      C1594   1.404       .  A
C1589      F1607   1.352       .  S
C1590      C1595   1.497       .  S
C1590      C1591   1.413       .  A
C1591      C1592   1.389       .  A
C1591      F1596   1.353       .  S
C1592      C1593   1.399       .  A
C1592      F1608   1.359       .  S
C1593      C1594   1.403       .  A
C1594      F1597   1.355       .  S
C1595      C1598   1.410       .  A
C1595      C1602   1.411       .  A
C1598      C1599   1.397       .  A
C1598      F1603   1.351       .  S
C1599      C1600   1.402       .  A
C1599      F1605   1.358       .  S
C1600      C1601   1.396       .  A
C1601      C1602   1.394       .  A
C1601      F1604   1.358       .  S
C1602      F1606   1.351       .  S
C1609      C1610   1.407       .  A
C1609      C1614   1.403       .  A
C1609      F1627   1.347       .  S
C1610      C1615   1.508       .  S
C1610      C1611   1.411   1_455  A
C1611      C1612   1.405       .  A
C1611      F1616   1.355       .  S
C1612      C1613   1.408   1_655  A
C1612      F1628   1.355       .  S
C1613      C1614   1.400       .  A
C1614      F1617   1.355       .  S
C1615      C1618   1.413       .  A
C1615      C1622   1.414       .  A
C1618      C1619   1.400       .  A
C1618      F1623   1.358       .  S
C1619      C1620   1.400       .  A
C1619      F1625   1.350       .  S
C1620      C1621   1.405       .  A
C1621      C1622   1.409       .  A
C1621      F1624   1.357   1_455  S
C1622      F1626   1.357       .  S
C1629      C1630   1.409       .  A
C1629      C1634   1.407       .  A
C1629      F1647   1.347       .  S
C1630      C1635   1.496       .  S
C1630      C1631   1.399       .  A
C1631      C1632   1.404       .  A
C1631      F1636   1.357       .  S
C1632      C1633   1.421       .  A
C1632      F1648   1.356       .  S
C1633      C1634   1.398       .  A
C1634      F1637   1.354       .  S
C1635      C1638   1.400       .  A
C1635      C1642   1.402       .  A
C1638      C1639   1.407       .  A
C1638      F1643   1.350       .  S
C1639      C1640   1.405       .  A
C1639      F1645   1.354       .  S
C1640      C1641   1.411       .  A
C1641      C1642   1.402       .  A
C1641      F1644   1.356       .  S
C1642      F1646   1.355       .  S
C1649      C1650   1.394       .  A
C1649      C1654   1.400       .  A
C1649      F1667   1.338       .  S
C1650      C1655   1.508       .  S
C1650      C1651   1.408       .  A
C1651      C1652   1.409       .  A
C1651      F1656   1.351       .  S
C1652      C1653   1.412       .  A
C1652      F1668   1.357       .  S
C1653      C1654   1.401       .  A
C1654      F1657   1.350       .  S
C1655      C1658   1.412       .  A
C1655      C1662   1.411       .  A
C1658      C1659   1.401       .  A
C1658      F1663   1.357       .  S
C1659      C1660   1.406       .  A
C1659      F1665   1.357       .  S
C1660      C1661   1.412       .  A
C1661      C1662   1.414       .  A
C1661      F1664   1.357       .  S
C1662      F1666   1.356       .  S
C1669      C1670   1.401       .  A
C1669      C1674   1.404       .  A
C1669      F1687   1.348       .  S
C1670      C1675   1.510       .  S
C1670      C1671   1.407       .  A
C1671      C1672   1.409       .  A
C1671      F1676   1.342       .  S
C1672      C1673   1.402       .  A
C1672      F1688   1.356       .  S
C1673      C1674   1.414       .  A
C1674      F1677   1.359       .  S
C1675      C1678   1.411       .  A
C1675      C1682   1.403       .  A
C1678      C1679   1.415       .  A
C1678      F1683   1.357       .  S
C1679      C1680   1.414       .  A
C1679      F1685   1.357       .  S
C1680      C1681   1.405       .  A
C1681      C1682   1.408       .  A
C1681      F1684   1.354       .  S
C1682      F1686   1.349       .  S
C1689      C1690   1.409       .  A
C1689      C1694   1.399       .  A
C1689      F1707   1.358       .  S
C1690      C1695   1.489       .  S
C1690      C1691   1.410       .  A
C1691      C1692   1.397       .  A
C1691      F1696   1.357       .  S
C1692      C1693   1.402       .  A
C1692      F1708   1.358       .  S
C1693      C1694   1.399       .  A
C1694      F1697   1.356       .  S
C1695      C1698   1.404       .  A
C1695      C1702   1.405       .  A
C1698      C1699   1.401       .  A
C1698      F1703   1.357       .  S
C1699      C1700   1.404       .  A
C1699      F1705   1.349       .  S
C1700      C1701   1.393       .  A
C1701      C1702   1.389       .  A
C1701      F1704   1.354       .  S
C1702      F1706   1.342       .  S
C1709      C1710   1.411       .  A
C1709      C1714   1.395       .  A
C1709      F1727   1.352       .  S
C1710      C1715   1.510       .  S
C1710      C1711   1.416       .  A
C1711      C1712   1.405       .  A
C1711      F1716   1.350       .  S
C1712      C1713   1.401       .  A
C1712      F1728   1.357       .  S
C1713      C1714   1.402       .  A
C1714      F1717   1.353       .  S
C1715      C1718   1.416       .  A
C1715      C1722   1.408       .  A
C1718      C1719   1.407       .  A
C1718      F1723   1.357       .  S
C1719      C1720   1.405       .  A
C1719      F1725   1.358       .  S
C1720      C1721   1.401       .  A
C1721      C1722   1.398       .  A
C1721      F1724   1.358       .  S
C1722      F1726   1.348       .  S
C1729      C1730   1.403       .  A
C1729      C1734   1.387       .  A
C1729      F1747   1.357       .  S
C1730      C1735   1.469       .  S
C1730      C1731   1.404       .  A
C1731      C1732   1.394       .  A
C1731      F1736   1.356       .  S
C1732      C1733   1.392       .  A
C1732      F1748   1.354       .  S
C1733      C1734   1.404       .  A
C1734      F1737   1.357       .  S
C1735      C1738   1.408       .  A
C1735      C1742   1.404       .  A
C1738      C1739   1.394       .  A
C1738      F1743   1.356       .  S
C1739      C1740   1.399       .  A
C1739      F1745   1.357       .  S
C1740      C1741   1.390       .  A
C1741      C1742   1.377       .  A
C1741      F3512   1.359       .  S
C1742      F1746   1.349       .  S
F1744      C3509   1.359       .  S
C1749      C1750   1.417       .  A
C1749      C1754   1.402       .  A
C1749      F1767   1.348       .  S
C1750      C1755   1.516       .  S
C1750      C1751   1.411       .  A
C1751      C1752   1.403       .  A
C1751      F1756   1.357       .  S
C1752      C1753   1.413       .  A
C1752      F1768   1.358       .  S
C1753      C1754   1.400       .  A
C1754      F1757   1.357       .  S
C1755      C1758   1.413       .  A
C1755      C1762   1.417       .  A
C1758      C1759   1.402       .  A
C1758      F1763   1.351       .  S
C1759      C1760   1.397       .  A
C1759      F1765   1.351       .  S
C1760      C1761   1.404       .  A
C1761      C1762   1.405       .  A
C1761      F1764   1.358       .  S
C1762      F1766   1.357       .  S
O1769     Ni1775   1.998       .  S
O1769      C1790   1.305       .  A
O1770     Ni1793   1.929       .  S
O1770      C1779   1.303       .  A
O1771     Ni1775   1.826       .  S
O1771     Ni1793   1.819   1_556  S
O1771     Ni1787   1.876       .  S
O1771      H1794   0.966       .  S
C1772      O1789   1.311       .  A
C1772      O1781   1.317       .  A
C1772      C1964   1.527       .  S
O1773     Ni1792   1.977   1_554  S
O1773      C1779   1.294       .  A
O1774     Ni1792   1.931       .  S
O1774      C1776   1.268       .  A
Ni1775     O1778   1.985   1_556  S
Ni1775     O1780   2.009   1_556  S
C1776      O1786   1.293       .  A
C1776      C1939   1.501       .  S
O1777     Ni1793   1.964       .  S
O1777      C1783   1.310       .  A
O1778      C1783   1.300       .  A
C1779      C2149   1.522       .  S
O1780      C1782   1.291       .  A
O1781     Ni1792   2.034       .  S
C1782      O1788   1.286       .  A
C1782      C2166   1.546       .  S
C1783      C2133   1.515       .  S
H1784      O1785   0.957   1_554  S
O1785     Ni1793   1.859   1_556  S
O1785     Ni1787   1.856       .  S
O1785     Ni1792   1.806       .  S
O1786     Ni1787   1.953       .  S
Ni1787     O1791   1.962       .  S
Ni1787     O1789   1.978       .  S
O1788     Ni1793   1.962       .  S
C1790      O1791   1.311       .  A
C1790      C1956   1.532       .  S
O1795     Ni1801   1.971       .  S
O1795      C1816   1.299       .  A
O1796     Ni1819   1.994       .  S
O1796      C1805   1.317       .  A
O1797     Ni1801   1.786       .  S
O1797     Ni1819   1.897       .  S
O1797     Ni1813   1.895       .  S
O1797      H1820   0.963       .  S
C1798      O1815   1.322       .  A
C1798      O1807   1.294       .  A
C1798      C1923   1.510       .  S
O1799     Ni1818   1.948       .  S
O1799      C1805   1.288       .  A
O1800     Ni1818   1.999       .  S
O1800      C1802   1.275       .  A
Ni1801     O1804   2.040       .  S
Ni1801     O1806   1.933       .  S
C1802      O1812   1.260       .  A
C1802      C1932   1.537       .  S
O1803     Ni1819   1.931       .  S
O1803      C1809   1.314       .  A
O1804      C1809   1.324       .  A
C1805      C2158   1.530       .  S
O1806      C1808   1.276       .  A
O1807     Ni1818   1.956       .  S
C1808      O1814   1.285       .  A
C1808      C2142   1.496       .  S
C1809      C2091   1.516       .  S
H1810      O1811   0.967       .  S
O1811     Ni1819   1.873       .  S
O1811     Ni1813   1.874       .  S
O1811     Ni1818   1.893       .  S
O1812     Ni1813   1.906       .  S
Ni1813     O1817   1.957       .  S
Ni1813     O1815   1.988       .  S
O1814     Ni1819   1.939       .  S
C1816      O1817   1.310       .  A
C1816      C1947   1.505       .  S
N1821      H1853   1.042       .  S
N1821      C2710   1.346       .  A
N1821      C1825   1.348       .  A
N1822      C1829   1.352       .  A
N1822      C1830   1.344       .  A
N1823      H1854   1.041       .  S
N1823      C2712   1.362       .  A
N1823      C1827   1.356       .  A
N1824      C1831   1.342       .  A
N1824      C1832   1.339       .  A
C1825      C1833   1.377       .  A
C1825      C1841   1.407       .  A
C1826      N2705   1.345       .  A
C1826      C1842   1.396       .  A
C1826      C1834   1.381       .  A
C1827      C1835   1.379       .  A
C1827      C1844   1.423       .  A
C1828      N2707   1.361       .  A
C1828      C1843   1.429       .  A
C1828      C1836   1.388       .  A
C1829      C1841   1.415       .  A
C1829      C1837   1.384       .  A
C1830      C1844   1.410       .  A
C1830      C1838   1.383       .  A
C1831      C1839   1.380       .  A
C1831      C1842   1.389       .  A
C1832      C1840   1.386       .  A
C1832      C1843   1.403       .  A
C1833      C2718   1.363       .  A
C1833      H1845   1.065       .  S
C1834      C2717   1.365   1_545  A
C1834      H1846   1.075       .  S
C1835      C2720   1.365       .  A
C1835      H1847   1.076       .  S
C1836      C2719   1.364   1_545  A
C1836      H1848   1.075       .  S
C1837      C1838   1.388       .  A
C1837      H1849   1.082       .  S
C1838      H1850   1.079       .  S
C1839      C1840   1.375       .  A
C1839      H1851   1.083       .  S
C1840      H1852   1.070       .  S
C1841      C2637   1.505       .  S
C1842      C2617   1.466       .  S
C1843      C2584   1.492       .  S
C1844      C2597   1.499       .  S
N1855      H1887   1.041       .  S
N1855      C1860   1.350       .  A
N1855      C1859   1.359       .  A
N1856      C1863   1.349       .  A
N1856      C1864   1.352       .  A
N1857      H1888   1.042       .  S
N1857      C1862   1.349       .  A
N1857      C1861   1.343       .  A
N1858      C1865   1.351       .  A
N1858      C1866   1.354       .  A
C1859      C1867   1.394       .  A
C1859      C1875   1.432       .  A
C1860      C1876   1.413       .  A
C1860      C1868   1.382       .  A
C1861      C1869   1.382       .  A
C1861      C1878   1.398       .  A
C1862      C1877   1.412       .  A
C1862      C1870   1.390       .  A
C1863      C1875   1.432       .  A
C1863      C1871   1.393       .  A
C1864      C1878   1.418       .  A
C1864      C1872   1.383       .  A
C1865      C1873   1.385       .  A
C1865      C1876   1.418       .  A
C1866      C1874   1.390       .  A
C1866      C1877   1.431       .  A
C1867      C1868   1.365       .  A
C1867      H1879   1.075       .  S
C1868      H1880   1.081       .  S
C1869      C1870   1.371       .  A
C1869      H1881   1.083   1_545  S
C1870      H1882   1.077       .  S
C1871      C1872   1.394       .  A
C1871      H1883   1.080       .  S
C1872      H1884   1.082       .  S
C1873      C1874   1.393       .  A
C1873      H1885   1.082       .  S
C1874      H1886   1.082       .  S
C1875      C2537   1.512       .  S
C1876      C2557   1.503       .  S
C1877      C2497   1.502       .  S
C1878      C2517   1.504       .  S
N1889      H1921   1.039       .  S
N1889      C1894   1.345       .  A
N1890      C1897   1.347       .  A
N1890      C1898   1.346       .  A
N1891      H1922   1.041       .  S
N1891      C1896   1.354       .  A
N1892      C1899   1.333       .  A
N1892      C1900   1.338       .  A
C1893      C1901   1.386       .  A
C1893      C1909   1.412       .  A
C1894      C1910   1.406       .  A
C1894      C1902   1.384       .  A
C1895      C1903   1.380       .  A
C1895      C1912   1.414       .  A
C1896      C1911   1.413       .  A
C1896      C1904   1.371       .  A
C1897      C1909   1.414       .  A
C1897      C1905   1.387       .  A
C1898      C1912   1.414       .  A
C1898      C1906   1.387       .  A
C1899      C1907   1.386       .  A
C1899      C1910   1.388       .  A
C1900      C1908   1.384       .  A
C1900      C1911   1.389       .  A
C1901      H1913   1.081       .  S
C1902      H1914   1.081       .  S
C1903      H1915   1.078       .  S
C1904      H1916   1.068       .  S
C1905      C1906   1.393       .  A
C1905      H1917   1.082       .  S
C1906      H1918   1.082       .  S
C1907      C1908   1.379       .  A
C1907      H1919   1.082       .  S
C1908      H1920   1.082       .  S
C1909      C2437   1.493       .  S
C1910      C2424   1.456       .  S
C1911      C2477   1.482       .  S
C1912      C2464   1.505       .  S
C1923      C1928   1.400       .  A
C1924      C1992   1.532       .  S
C1924      C1925   1.434       .  A
C1925      C1926   1.410       .  A
C1925      H1930   1.083       .  S
C1926      C2564   1.507       .  S
C1927      C2624   1.456       .  S
C1927      C1928   1.378       .  A
C1928      H1929   1.087       .  S
C1931      C1974   1.511       .  S
C1931      C2816   1.472       .  A
C1931      C1936   1.414       .  A
C1932      C2815   1.470   1_545  A
C1932      C1933   1.438       .  A
C1933      C1934   1.405       .  A
C1933      H1938   1.085       .  S
C1934      C2544   1.507       .  S
C1934      C2819   1.403   1_545  A
C1935      C2457   1.477       .  S
C1935      C2818   1.403       .  A
C1935      C1936   1.382       .  A
C1936      H1937   1.088       .  S
C1939      C1940   1.451       .  A
C1939      C1944   1.397       .  A
C1940      C2018   1.497       .  S
C1940      C1941   1.425       .  A
C1941      C1942   1.390       .  A
C1941      H1946   1.085       .  S
C1942      C2604   1.497       .  S
C1942      C1943   1.403       .  A
C1943      C2417   1.455       .  S
C1943      C1944   1.383       .  A
C1944      H1945   1.080       .  S
C1947      C1948   1.456       .  A
C1947      C1952   1.411       .  A
C1948      C1978   1.493       .  S
C1948      C1949   1.418       .  A
C1949      C1950   1.397       .  A
C1949      H1954   1.086       .  S
C1950      C2644   1.494       .  S
C1950      C1951   1.404       .  A
C1951      C2484   1.474       .  S
C1951      C1952   1.393       .  A
C1952      H1953   1.086       .  S
C1955      C2000   1.512       .  S
C1955      C2840   1.453       .  A
C1955      C1960   1.414       .  A
C1956      C2839   1.454   1_545  A
C1956      C1957   1.427       .  A
C1957      C1958   1.407       .  A
C1957      H1962   1.082       .  S
C1958      C2524   1.504       .  S
C1958      C2843   1.408   1_545  A
C1959      C2444   1.483       .  S
C1959      C2842   1.409       .  A
C1959      C1960   1.396       .  A
C1960      H1961   1.085       .  S
C1963      C2004   1.546       .  S
C1963      C1968   1.434       .  A
C1964      C1965   1.414       .  A
C1965      C1966   1.402       .  A
C1965      H1970   1.079       .  S
C1966      C2577   1.479       .  S
C1967      C2504   1.505       .  S
C1967      C1968   1.396       .  A
C1968      H1969   1.083       .  S
O1971     Ni1977   1.951       .  S
O1971      C1992   1.291       .  A
O1972     Ni1995   1.935       .  S
O1972      C1981   1.304       .  A
O1973     Ni1977   1.896       .  S
O1973     Ni1995   1.861       .  S
O1973     Ni1989   1.879       .  S
O1973      H1996   0.967       .  S
C1974      O1991   1.316       .  A
C1974      O1983   1.329       .  A
O1975     Ni1994   1.982       .  S
O1975      C1981   1.304       .  A
O1976     Ni1994   1.925       .  S
O1976      C1978   1.274       .  A
Ni1977     O1980   1.972       .  S
Ni1977     O1982   2.005       .  S
C1978      O1988   1.290       .  A
O1979     Ni1995   1.985       .  S
O1979      C1985   1.318       .  A
O1980      C1985   1.298       .  A
C1981      C2141   1.500       .  S
O1982      C1984   1.275       .  A
O1983     Ni1994   2.054       .  S
C1984      O1990   1.257       .  A
C1984      C2092   1.540       .  S
C1985      C2157   1.520       .  S
H1986      O1987   0.961       .  S
O1987     Ni1995   1.875       .  S
O1987     Ni1989   1.887       .  S
O1987     Ni1994   1.765       .  S
O1988     Ni1989   1.946       .  S
Ni1989     O1993   2.001       .  S
Ni1989     O1991   1.923       .  S
O1990     Ni1995   1.890       .  S
C1992      O1993   1.318       .  A
O1997     Ni2003   1.971       .  S
O1997      C2018   1.296       .  A
O1998     Ni2021   1.955       .  S
O1998      C2007   1.310       .  A
O1999     Ni2003   1.805       .  S
O1999     Ni2021   1.845   1_556  S
O1999     Ni2015   1.862       .  S
O1999      H2022   0.953       .  S
C2000      O2017   1.307       .  A
C2000      O2009   1.304       .  A
O2001     Ni2020   1.990   1_554  S
O2001      C2007   1.305       .  A
O2002     Ni2020   2.006       .  S
O2002      C2004   1.287       .  A
Ni2003     O2006   2.030   1_556  S
Ni2003     O2008   1.939   1_556  S
C2004      O2014   1.275       .  A
O2005     Ni2021   1.973       .  S
O2005      C2011   1.306       .  A
O2006      C2011   1.312       .  A
C2007      C2134   1.519       .  S
O2008      C2010   1.274       .  A
O2009     Ni2020   1.990       .  S
C2010      O2016   1.297       .  A
C2010      C2150   1.510       .  S
C2011      C2165   1.525       .  S
H2012      O2013   0.967       .  S
O2013     Ni2021   1.871   1_556  S
O2013     Ni2015   1.825       .  S
O2013     Ni2020   1.828       .  S
O2014     Ni2015   1.928       .  S
Ni2015     O2019   1.920       .  S
Ni2015     O2017   1.954       .  S
O2016     Ni2021   1.957       .  S
C2018      O2019   1.299       .  A
N2023      H2055   1.039       .  S
N2023      C2028   1.349       .  A
N2024      C2031   1.348       .  A
N2024      C2032   1.346       .  A
N2025      H2056   1.039       .  S
N2025      C2030   1.353       .  A
N2026      C2033   1.344       .  A
N2026      C2034   1.346       .  A
C2027      C2035   1.385       .  A
C2027      C2043   1.410       .  A
C2028      C2044   1.411       .  A
C2028      C2036   1.387       .  A
C2029      C2037   1.381       .  A
C2029      C2046   1.410       .  A
C2030      C2045   1.409       .  A
C2030      C2038   1.381       .  A
C2031      C2043   1.413       .  A
C2031      C2039   1.388       .  A
C2032      C2046   1.408       .  A
C2032      C2040   1.384       .  A
C2033      C2041   1.387       .  A
C2033      C2044   1.408       .  A
C2034      C2042   1.383       .  A
C2034      C2045   1.406       .  A
C2035      H2047   1.080       .  S
C2036      H2048   1.079       .  S
C2037      H2049   1.077       .  S
C2038      H2050   1.081       .  S
C2039      C2040   1.384       .  A
C2039      H2051   1.080       .  S
C2040      H2052   1.083       .  S
C2041      C2042   1.386       .  A
C2041      H2053   1.081       .  S
C2042      H2054   1.080       .  S
C2043      C2364   1.496       .  S
C2044      C2397   1.476       .  S
C2045      C2384   1.495       .  S
C2046      C2344   1.487       .  S
N2057      H2089   1.042       .  S
N2057      C2062   1.347       .  A
N2057      C2061   1.349       .  A
N2058      C2065   1.349       .  A
N2058      C2066   1.341       .  A
N2059      H2090   1.039       .  S
N2059      C2064   1.355       .  A
N2059      C2063   1.353       .  A
N2060      C2067   1.353       .  A
N2060      C2068   1.350       .  A
C2061      C2069   1.380       .  A
C2061      C2077   1.404       .  A
C2062      C2078   1.404       .  A
C2062      C2070   1.382       .  A
C2063      C2071   1.383       .  A
C2063      C2080   1.413       .  A
C2064      C2079   1.417       .  A
C2064      C2072   1.382       .  A
C2065      C2077   1.403       .  A
C2065      C2073   1.381       .  A
C2066      C2080   1.407       .  A
C2066      C2074   1.384       .  A
C2067      C2075   1.381       .  A
C2067      C2078   1.416       .  A
C2068      C2076   1.377       .  A
C2068      C2079   1.416       .  A
C2069      C2070   1.361       .  A
C2069      H2081   1.069       .  S
C2070      H2082   1.077       .  S
C2071      C2072   1.362       .  A
C2071      H2083   1.080       .  S
C2072      H2084   1.074       .  S
C2073      C2074   1.379       .  A
C2073      H2085   1.080       .  S
C2074      H2086   1.077       .  S
C2075      C2076   1.388       .  A
C2075      H2087   1.079       .  S
C2076      H2088   1.074       .  S
C2077      C2257   1.493       .  S
C2078      C2304   1.500       .  S
C2079      C2317   1.508       .  S
C2080      C2277   1.481       .  S
C2091      C2976   1.476   1_545  A
C2091      C2096   1.424       .  A
C2092      C2975   1.476       .  A
C2092      C2093   1.431       .  A
C2093      C2094   1.386       .  A
C2093      H2098   1.085       .  S
C2094      C2297   1.492       .  S
C2094      C2979   1.393       .  A
C2095      C2337   1.483       .  S
C2095      C2978   1.394   1_545  A
C2095      C2096   1.397       .  A
C2096      H2097   1.086       .  S
N2099      H2131   1.046       .  S
N2099      C2104   1.341       .  A
N2099      C2987   1.341   1_545  A
N2100      C2107   1.352       .  A
N2100      C2108   1.346       .  A
N2101      H2132   1.041       .  S
N2101      C2106   1.360       .  A
N2101      C2989   1.358   1_545  A
N2102      C2109   1.345       .  A
N2102      C2110   1.337       .  A
C2103      N2983   1.342       .  A
C2103      C2111   1.386       .  A
C2103      C2119   1.400       .  A
C2104      C2120   1.390       .  A
C2104      C2112   1.381       .  A
C2105      N2985   1.358       .  A
C2105      C2113   1.383       .  A
C2105      C2122   1.417       .  A
C2106      C2121   1.425       .  A
C2106      C2114   1.378       .  A
C2107      C2119   1.422       .  A
C2107      C2115   1.382       .  A
C2108      C2122   1.419       .  A
C2108      C2116   1.385       .  A
C2109      C2117   1.384       .  A
C2109      C2120   1.409       .  A
C2110      C2118   1.391       .  A
C2110      C2121   1.415       .  A
C2111      C2996   1.379       .  A
C2111      H2123   1.080       .  S
C2112      C2995   1.379   1_545  A
C2112      H2124   1.082       .  S
C2113      C2998   1.357       .  A
C2113      H2125   1.081       .  S
C2114      C2997   1.358   1_545  A
C2114      H2126   1.068       .  S
C2115      C2116   1.390       .  A
C2115      H2127   1.078       .  S
C2116      H2128   1.078       .  S
C2117      C2118   1.388       .  A
C2117      H2129   1.078       .  S
C2118      H2130   1.076       .  S
C2119      C2197   1.536       .  S
C2120      C2237   1.498       .  S
C2121      C2217   1.504       .  S
C2122      C2184   1.512       .  S
C2133      C3018   1.461   1_545  A
C2133      C2138   1.408       .  A
C2134      C3017   1.462       .  A
C2134      C2135   1.434       .  A
C2135      C2136   1.402       .  A
C2135      H2140   1.084       .  S
C2136      C2324   1.511       .  S
C2136      C3021   1.403       .  A
C2137      C2357   1.465       .  S
C2137      C3020   1.404   1_545  A
C2137      C2138   1.388       .  A
C2138      H2139   1.083       .  S
C2141      C2142   1.445       .  A
C2141      C2146   1.407       .  A
C2142      C2143   1.417       .  A
C2143      C2144   1.406       .  A
C2143      H2148   1.085       .  S
C2144      C2224   1.487       .  S
C2144      C2145   1.411       .  A
C2145      C2377   1.482       .  S
C2145      C2146   1.386       .  A
C2146      H2147   1.085       .  S
C2149      C2150   1.462       .  A
C2149      C2154   1.415       .  A
C2150      C2151   1.419       .  A
C2151      C2152   1.393       .  A
C2151      H2156   1.084       .  S
C2152      C2404   1.476       .  S
C2152      C2153   1.396       .  A
C2153      C2244   1.470       .  S
C2153      C2154   1.379       .  A
C2154      H2155   1.083       .  S
C2157      C2162   1.417       .  A
C2158      C2159   1.424       .  A
C2159      C2160   1.396       .  A
C2159      H2164   1.083       .  S
C2160      C2264   1.488       .  S
C2161      C2177   1.489       .  S
C2161      C2162   1.392       .  A
C2162      H2163   1.085       .  S
C2165      C2170   1.424       .  A
C2166      C2167   1.428       .  A
C2167      C2168   1.398       .  A
C2167      H2172   1.083       .  S
C2168      C2284   1.490       .  S
C2169      C2204   1.495       .  S
C2169      C2170   1.392       .  A
C2170      H2171   1.087       .  S
C2173      C2174   1.428       .  A
C2173      C2178   1.405       .  A
C2173      F2191   1.353       .  S
C2174      C2179   1.540       .  S
C2174      C2175   1.430       .  A
C2175      C2176   1.397       .  A
C2175      F2180   1.349       .  S
C2176      C2177   1.394       .  A
C2177      C2178   1.395       .  A
C2178      F2181   1.354       .  S
C2179      C2182   1.428       .  A
C2179      C2186   1.416       .  A
C2182      C2183   1.409       .  A
C2182      F2187   1.341       .  S
C2183      C2184   1.400       .  A
C2183      F2189   1.356       .  S
C2184      C2185   1.412       .  A
C2185      C2186   1.397       .  A
C2185      F2188   1.360       .  S
C2186      F2190   1.354       .  S
C2193      C2194   1.410       .  A
C2193      C2198   1.407       .  A
C2193      F2211   1.345       .  S
C2194      C2199   1.529       .  S
C2194      C2195   1.409       .  A
C2195      C2196   1.402       .  A
C2195      F2200   1.355       .  S
C2196      C2197   1.427       .  A
C2196      F2212   1.349       .  S
C2197      C2198   1.412       .  A
C2198      F2201   1.354       .  S
C2199      C2202   1.420       .  A
C2199      C2206   1.426       .  A
C2202      C2203   1.398       .  A
C2202      F2207   1.355       .  S
C2203      C2204   1.394       .  A
C2203      F2209   1.350       .  S
C2204      C2205   1.398       .  A
C2205      C2206   1.406       .  A
C2205      F2208   1.358       .  S
C2206      F2210   1.350       .  S
C2213      C2214   1.401       .  A
C2213      C2218   1.401       .  A
C2213      F2231   1.347       .  S
C2214      C2219   1.503       .  S
C2214      C2215   1.409       .  A
C2215      C2216   1.399       .  A
C2215      F2220   1.350       .  S
C2216      C2217   1.410       .  A
C2216      F2232   1.358       .  S
C2217      C2218   1.401       .  A
C2218      F2221   1.345       .  S
C2219      C2222   1.410       .  A
C2219      C2226   1.410       .  A
C2222      C2223   1.397       .  A
C2222      F2227   1.355       .  S
C2223      C2224   1.402       .  A
C2223      F2229   1.358       .  S
C2224      C2225   1.404       .  A
C2225      C2226   1.405       .  A
C2225      F2228   1.357       .  S
C2226      F2230   1.350       .  S
C2233      C2234   1.404       .  A
C2233      C2238   1.401       .  A
C2233      F2251   1.351       .  S
C2234      C2239   1.476       .  S
C2234      C2235   1.392       .  A
C2235      C2236   1.387       .  A
C2235      F2240   1.359       .  S
C2236      C2237   1.421       .  A
C2236      F2252   1.354       .  S
C2237      C2238   1.406       .  A
C2238      F2241   1.351       .  S
C2239      C2242   1.402       .  A
C2239      C2246   1.410       .  A
C2242      C2243   1.392       .  A
C2242      F2247   1.353       .  S
C2243      C2244   1.393       .  A
C2243      F2249   1.351       .  S
C2244      C2245   1.399       .  A
C2245      C2246   1.395       .  A
C2245      F2248   1.357       .  S
C2246      F2250   1.358       .  S
C2253      C2254   1.411       .  A
C2253      C2258   1.399       .  A
C2253      F2271   1.343       .  S
C2254      C2259   1.507       .  S
C2254      C2255   1.409       .  A
C2255      C2256   1.395       .  A
C2255      F2260   1.350       .  S
C2256      C2257   1.407       .  A
C2256      F2272   1.358       .  S
C2257      C2258   1.399       .  A
C2258      F2261   1.356       .  S
C2259      C2262   1.406       .  A
C2259      C2266   1.414       .  A
C2262      C2263   1.392       .  A
C2262      F2267   1.347       .  S
C2263      C2264   1.399       .  A
C2263      F2269   1.358       .  S
C2264      C2265   1.405       .  A
C2265      C2266   1.408       .  A
C2265      F2268   1.357       .  S
C2266      F2270   1.354       .  S
C2273      C2274   1.415       .  A
C2273      C2278   1.394       .  A
C2273      F2291   1.335       .  S
C2274      C2279   1.513       .  S
C2274      C2275   1.410       .  A
C2275      C2276   1.393       .  A
C2275      F2280   1.346       .  S
C2276      C2277   1.401       .  A
C2276      F2292   1.356       .  S
C2277      C2278   1.392       .  A
C2278      F2281   1.358       .  S
C2279      C2282   1.419       .  A
C2279      C2286   1.413       .  A
C2282      C2283   1.401       .  A
C2282      F2287   1.354       .  S
C2283      C2284   1.399       .  A
C2283      F2289   1.358       .  S
C2284      C2285   1.399       .  A
C2285      C2286   1.402       .  A
C2286      F2290   1.355       .  S
C2293      C2294   1.405       .  A
C2293      C2298   1.397       .  A
C2293      F2311   1.344       .  S
C2294      C2299   1.511       .  S
C2294      C2295   1.418       .  A
C2295      C2296   1.405       .  A
C2295      F2300   1.355       .  S
C2296      C2297   1.405       .  A
C2296      F2312   1.358       .  S
C2297      C2298   1.391       .  A
C2298      F2301   1.348       .  S
C2299      C2302   1.423       .  A
C2299      C2306   1.409       .  A
C2302      C2303   1.402       .  A
C2302      F2307   1.355       .  S
C2303      C2304   1.398       .  A
C2303      F2309   1.357       .  S
C2304      C2305   1.415       .  A
C2305      C2306   1.401       .  A
C2305      F2308   1.358       .  S
C2306      F2310   1.357       .  S
C2313      C2314   1.418       .  A
C2313      C2318   1.410       .  A
C2313      F2331   1.343       .  S
C2314      C2319   1.533       .  S
C2314      C2315   1.419       .  A
C2315      C2316   1.404       .  A
C2315      F2320   1.351       .  S
C2316      C2317   1.405       .  A
C2316      F2332   1.358       .  S
C2317      C2318   1.402       .  A
C2318      F2321   1.357       .  S
C2319      C2322   1.420       .  A
C2319      C2326   1.421       .  A
C2322      C2323   1.406       .  A
C2322      F2327   1.350       .  S
C2323      C2324   1.405       .  A
C2323      F2329   1.358       .  S
C2324      C2325   1.406       .  A
C2325      C2326   1.413       .  A
C2325      F2328   1.357       .  S
C2326      F2330   1.355       .  S
C2333      C2334   1.405       .  A
C2333      C2338   1.396       .  A
C2333      F2351   1.358       .  S
C2334      C2339   1.485       .  S
C2334      C2335   1.405       .  A
C2335      C2336   1.403       .  A
C2335      F2340   1.352       .  S
C2336      C2337   1.404       .  A
C2336      F2352   1.357       .  S
C2337      C2338   1.406       .  A
C2338      F2341   1.358   1_545  S
C2339      C2342   1.395       .  A
C2339      C2346   1.402       .  A
C2342      C2343   1.401       .  A
C2342      F2347   1.350       .  S
C2343      C2344   1.395       .  A
C2343      F2349   1.352       .  S
C2344      C2345   1.410       .  A
C2345      C2346   1.399       .  A
C2345      F2348   1.358       .  S
C2346      F2350   1.351       .  S
C2353      C2354   1.419       .  A
C2353      C2358   1.391       .  A
C2353      F3255   1.349       .  S
C2354      C2359   1.511       .  S
C2354      C2355   1.424       .  A
C2355      C2356   1.392       .  A
C2355      F2360   1.348       .  S
C2356      C2357   1.391       .  A
C2356      F2372   1.359       .  S
C2357      C2358   1.394       .  A
C2358      F3245   1.359       .  S
C2359      C2362   1.411       .  A
C2359      C2366   1.417       .  A
F2361      C3242   1.359       .  S
C2362      C2363   1.393       .  A
C2362      F2367   1.355       .  S
C2363      C2364   1.411       .  A
C2363      F2369   1.358       .  S
C2364      C2365   1.399       .  A
C2365      C2366   1.400       .  A
C2365      F2368   1.357       .  S
C2366      F2370   1.343       .  S
F2371      C3237   1.350       .  S
C2373      C2374   1.424       .  A
C2373      C2378   1.394       .  A
C2373      F2391   1.347       .  S
C2374      C2379   1.524       .  S
C2374      C2375   1.421       .  A
C2375      C2376   1.401       .  A
C2375      F2380   1.351       .  S
C2376      C2377   1.397       .  A
C2376      F2392   1.358       .  S
C2377      C2378   1.394       .  A
C2378      F2381   1.359       .  S
C2379      C2382   1.416       .  A
C2379      C2386   1.425       .  A
C2382      C2383   1.397       .  A
C2382      F2387   1.355       .  S
C2383      C2384   1.406       .  A
C2383      F2389   1.360       .  S
C2384      C2385   1.396       .  A
C2385      C2386   1.406       .  A
C2385      F2388   1.355       .  S
C2386      F2390   1.352       .  S
C2393      C2394   1.411       .  A
C2393      C2398   1.393       .  A
C2393      F2411   1.358       .  S
C2394      C2399   1.495       .  S
C2394      C2395   1.411       .  A
C2395      C2396   1.400       .  A
C2395      F2400   1.354       .  S
C2396      C2397   1.397       .  A
C2396      F2412   1.354       .  S
C2397      C2398   1.402       .  A
C2398      F2401   1.358       .  S
C2399      C2402   1.412       .  A
C2399      C2406   1.411       .  A
C2402      C2403   1.398       .  A
C2402      F2407   1.358       .  S
C2403      C2404   1.398       .  A
C2403      F2409   1.358       .  S
C2404      C2405   1.401       .  A
C2405      C2406   1.397       .  A
C2405      F2408   1.358       .  S
C2406      F2410   1.354       .  S
C2413      C2414   1.412       .  A
C2413      C2418   1.389       .  A
C2413      F2431   1.349       .  S
C2414      C2419   1.483       .  S
C2414      C2415   1.403       .  A
C2415      C2416   1.382       .  A
C2415      F2420   1.346       .  S
C2416      C2417   1.387       .  A
C2416      F2432   1.353       .  S
C2417      C2418   1.397       .  A
C2418      F2421   1.358       .  S
C2419      C2422   1.407       .  A
C2419      C2426   1.423       .  A
C2422      C2423   1.387       .  A
C2422      F2427   1.356       .  S
C2423      C2424   1.402       .  A
C2423      F2429   1.358       .  S
C2424      C2425   1.387       .  A
C2425      C2426   1.384       .  A
C2425      F2428   1.358       .  S
C2426      F2430   1.354       .  S
C2433      C2434   1.403       .  A
C2433      C2438   1.393       .  A
C2433      F2451   1.353       .  S
C2434      C2439   1.494       .  S
C2434      C2435   1.404       .  A
C2435      C2436   1.409       .  A
C2435      F2440   1.346       .  S
C2436      C2437   1.403       .  A
C2436      F2452   1.355       .  S
C2437      C2438   1.408       .  A
C2438      F2441   1.356       .  S
C2439      C2442   1.406       .  A
C2439      C2446   1.407       .  A
C2442      C2443   1.403       .  A
C2442      F2447   1.354       .  S
C2443      C2444   1.402       .  A
C2443      F2449   1.358       .  S
C2444      C2445   1.401       .  A
C2445      C2446   1.397       .  A
C2445      F3332   1.358       .  S
C2446      F2450   1.350       .  S
F2448      C3329   1.358   1_545  S
C2453      C2454   1.415       .  A
C2453      C2458   1.396       .  A
C2453      F2471   1.341       .  S
C2454      C2459   1.518       .  S
C2454      C2455   1.420       .  A
C2455      C2456   1.392       .  A
C2455      F2460   1.345       .  S
C2456      C2457   1.396       .  A
C2456      F3356   1.358       .  S
C2457      C2458   1.393       .  A
C2458      F2461   1.357       .  S
C2459      C2462   1.423       .  A
C2459      C2466   1.409       .  A
C2462      C2463   1.408       .  A
C2462      F2467   1.352       .  S
C2463      C2464   1.400       .  A
C2463      F2469   1.357       .  S
C2464      C2465   1.412       .  A
C2465      C2466   1.394       .  A
C2465      F2468   1.359       .  S
C2466      F2470   1.355       .  S
F2472      C3340   1.358       .  S
C2473      C2474   1.412       .  A
C2473      C2478   1.401       .  A
C2473      F2491   1.352       .  S
C2474      C2479   1.494       .  S
C2474      C2475   1.413       .  A
C2475      C2476   1.390       .  A
C2475      F2480   1.353       .  S
C2476      C2477   1.399       .  A
C2476      F2492   1.359       .  S
C2477      C2478   1.401       .  A
C2478      F2481   1.355       .  S
C2479      C2482   1.410       .  A
C2479      C2486   1.412       .  A
C2482      C2483   1.394       .  A
C2482      F2487   1.351       .  S
C2483      C2484   1.401       .  A
C2483      F2489   1.358       .  S
C2484      C2485   1.398       .  A
C2485      C2486   1.396       .  A
C2485      F2488   1.358       .  S
C2486      F2490   1.353       .  S
C2493      C2494   1.411       .  A
C2493      C2498   1.404       .  A
C2493      F2511   1.349       .  S
C2494      C2499   1.513       .  S
C2494      C2495   1.413       .  A
C2495      C2496   1.407       .  A
C2495      F2500   1.355       .  S
C2496      C2497   1.409       .  A
C2496      F2512   1.356       .  S
C2497      C2498   1.400       .  A
C2498      F2501   1.355       .  S
C2499      C2502   1.414       .  A
C2499      C2506   1.417       .  A
C2502      C2503   1.400       .  A
C2502      F2507   1.357       .  S
C2503      C2504   1.399       .  A
C2503      F2509   1.348       .  S
C2504      C2505   1.406       .  A
C2505      C2506   1.412       .  A
C2505      F2508   1.357       .  S
C2506      F2510   1.357       .  S
C2513      C2514   1.408       .  A
C2513      C2518   1.407       .  A
C2513      F2531   1.348       .  S
C2514      C2519   1.495       .  S
C2514      C2515   1.400       .  A
C2515      C2516   1.405       .  A
C2515      F2520   1.358       .  S
C2516      C2517   1.422       .  A
C2516      F2532   1.357       .  S
C2517      C2518   1.398       .  A
C2518      F2521   1.355   1_545  S
C2519      C2522   1.398       .  A
C2519      C2526   1.403       .  A
C2522      C2523   1.408       .  A
C2522      F2527   1.349       .  S
C2523      C2524   1.405       .  A
C2523      F2529   1.354       .  S
C2524      C2525   1.412       .  A
C2525      C2526   1.404       .  A
C2525      F2528   1.356   1_545  S
C2526      F2530   1.356   1_545  S
C2533      C2534   1.396       .  A
C2533      C2538   1.402       .  A
C2533      F2551   1.338       .  S
C2534      C2539   1.507       .  S
C2534      C2535   1.406       .  A
C2535      C2536   1.408       .  A
C2535      F2540   1.349   1_545  S
C2536      C2537   1.412       .  A
C2536      F2552   1.357   1_545  S
C2537      C2538   1.403       .  A
C2538      F2541   1.351       .  S
C2539      C2542   1.410       .  A
C2539      C2546   1.411       .  A
C2542      C2543   1.402       .  A
C2542      F2547   1.356       .  S
C2543      C2544   1.406       .  A
C2543      F2549   1.357       .  S
C2544      C2545   1.412       .  A
C2545      C2546   1.414       .  A
C2545      F2548   1.357       .  S
C2546      F2550   1.357       .  S
C2553      C2554   1.401       .  A
C2553      C2558   1.402       .  A
C2553      F2571   1.348       .  S
C2554      C2559   1.507       .  S
C2554      C2555   1.406       .  A
C2555      C2556   1.408       .  A
C2555      F2560   1.341       .  S
C2556      C2557   1.401       .  A
C2556      F2572   1.356       .  S
C2557      C2558   1.415       .  A
C2558      F2561   1.359       .  S
C2559      C2562   1.411       .  A
C2559      C2566   1.403       .  A
C2562      C2563   1.413       .  A
C2562      F2567   1.358       .  S
C2563      C2564   1.413       .  A
C2563      F2569   1.357       .  S
C2564      C2565   1.404       .  A
C2565      C2566   1.406       .  A
C2565      F2568   1.355       .  S
C2566      F2570   1.350       .  S
C2573      C2574   1.412       .  A
C2573      C2578   1.400       .  A
C2573      F2591   1.358       .  S
C2574      C2579   1.493       .  S
C2574      C2575   1.410       .  A
C2575      C2576   1.396       .  A
C2575      F2580   1.357       .  S
C2576      C2577   1.402       .  A
C2576      F2592   1.358       .  S
C2577      C2578   1.400       .  A
C2578      F2581   1.356       .  S
C2579      C2582   1.404       .  A
C2579      C2586   1.406       .  A
C2582      C2583   1.401       .  A
C2582      F2587   1.356   1_655  S
C2583      C2584   1.404       .  A
C2583      F2589   1.348       .  S
C2584      C2585   1.393       .  A
C2585      C2586   1.390       .  A
C2585      F2588   1.353       .  S
C2586      F2590   1.343       .  S
C2593      C2594   1.412       .  A
C2593      C2598   1.397       .  A
C2593      F2611   1.352       .  S
C2594      C2599   1.515       .  S
C2594      C2595   1.418       .  A
C2595      C2596   1.407       .  A
C2595      F2600   1.350       .  S
C2596      C2597   1.402       .  A
C2596      F2612   1.357       .  S
C2597      C2598   1.403       .  A
C2598      F2601   1.354       .  S
C2599      C2602   1.417       .  A
C2599      C2606   1.410       .  A
C2602      C2603   1.408       .  A
C2602      F2607   1.356       .  S
C2603      C2604   1.405       .  A
C2603      F2609   1.358       .  S
C2604      C2605   1.403       .  A
C2605      C2606   1.401       .  A
C2605      F2608   1.358       .  S
C2606      F2610   1.349       .  S
C2613      C2614   1.404       .  A
C2613      C2618   1.387       .  A
C2613      F2631   1.357       .  S
C2614      C2619   1.473       .  S
C2614      C2615   1.405       .  A
C2615      C2616   1.394       .  A
C2615      F2620   1.355       .  S
C2616      C2617   1.392       .  A
C2616      F2632   1.353       .  S
C2617      C2618   1.404       .  A
C2618      F2621   1.357       .  S
C2619      C2622   1.409       .  A
C2619      C2626   1.405       .  A
C2622      C2623   1.395       .  A
C2622      F2627   1.356       .  S
C2623      C2624   1.399       .  A
C2623      F2629   1.357       .  S
C2624      C2625   1.390       .  A
C2625      C2626   1.378       .  A
C2626      F2630   1.348       .  S
C2633      C2634   1.417       .  A
C2633      C2638   1.403       .  A
C2633      F2651   1.349       .  S
C2634      C2639   1.516       .  S
C2634      C2635   1.411       .  A
C2635      C2636   1.403       .  A
C2635      F2640   1.357       .  S
C2636      C2637   1.414       .  A
C2636      F2652   1.358       .  S
C2637      C2638   1.401       .  A
C2638      F2641   1.357       .  S
C2639      C2642   1.412       .  A
C2639      C2646   1.417       .  A
C2642      C2643   1.402       .  A
C2642      F2647   1.351       .  S
C2643      C2644   1.396       .  A
C2643      F2649   1.351       .  S
C2644      C2645   1.404       .  A
C2645      C2646   1.405       .  A
C2645      F2648   1.358       .  S
C2646      F2650   1.357       .  S
O2653     Ni2659   1.996       .  S
O2653      C2674   1.305       .  A
O2654     Ni2677   1.929       .  S
O2654      C2663   1.304       .  A
O2655     Ni2659   1.827       .  S
O2655     Ni2677   1.819   1_556  S
O2655     Ni2671   1.876       .  S
O2655      H2678   0.966       .  S
C2656      O2673   1.310       .  A
C2656      O2665   1.317       .  A
C2656      C2848   1.526       .  S
O2657     Ni2676   1.976   1_554  S
O2657      C2663   1.294       .  A
O2658     Ni2676   1.929       .  S
O2658      C2660   1.268       .  A
Ni2659     O2662   1.983   1_556  S
Ni2659     O2664   2.010   1_556  S
C2660      O2670   1.294       .  A
C2660      C2823   1.501       .  S
O2661     Ni2677   1.967       .  S
O2661      C2667   1.312       .  A
O2662      C2667   1.300       .  A
C2663      C3033   1.521       .  S
O2664      C2666   1.291       .  A
O2665     Ni2676   2.035       .  S
C2666      O2672   1.286       .  A
C2666      C3050   1.547       .  S
C2667      C3017   1.513       .  S
H2668      O2669   0.956   1_554  S
O2669     Ni2677   1.858   1_556  S
O2669     Ni2671   1.852       .  S
O2669     Ni2676   1.804       .  S
O2670     Ni2671   1.957       .  S
Ni2671     O2675   1.960       .  S
Ni2671     O2673   1.975       .  S
O2672     Ni2677   1.962       .  S
C2674      O2675   1.311       .  A
C2674      C2840   1.530       .  S
O2679     Ni2685   1.966       .  S
O2679      C2700   1.298       .  A
O2680     Ni2703   1.994       .  S
O2680      C2689   1.318       .  A
O2681     Ni2685   1.788       .  S
O2681     Ni2703   1.898       .  S
O2681     Ni2697   1.898       .  S
O2681      H2704   0.963       .  S
C2682      O2699   1.323       .  A
C2682      O2691   1.294       .  A
C2682      C2807   1.513       .  S
O2683     Ni2702   1.944       .  S
O2683      C2689   1.286       .  A
O2684     Ni2702   1.997       .  S
O2684      C2686   1.274       .  A
Ni2685     O2688   2.037       .  S
Ni2685     O2690   1.934       .  S
C2686      O2696   1.261       .  A
C2686      C2816   1.538       .  S
O2687     Ni2703   1.934       .  S
O2687      C2693   1.315       .  A
O2688      C2693   1.323       .  A
C2689      C3042   1.527       .  S
O2690      C2692   1.276       .  A
O2691     Ni2702   1.956       .  S
C2692      O2698   1.286       .  A
C2692      C3026   1.498       .  S
C2693      C2975   1.517       .  S
H2694      O2695   0.967       .  S
O2695     Ni2703   1.874       .  S
O2695     Ni2697   1.874       .  S
O2695     Ni2702   1.894       .  S
O2696     Ni2697   1.907       .  S
Ni2697     O2701   1.959       .  S
Ni2697     O2699   1.992       .  S
O2698     Ni2703   1.941       .  S
C2700      O2701   1.311       .  A
C2700      C2831   1.503       .  S
N2705      H2737   1.042       .  S
N2705      C2709   1.347   1_545  A
N2706      C2713   1.352       .  A
N2706      C2714   1.343       .  A
N2707      H2738   1.040       .  S
N2707      C2711   1.355   1_545  A
N2708      C2715   1.341       .  A
N2708      C2716   1.338       .  A
C2709      C2717   1.377       .  A
C2709      C2725   1.407       .  A
C2710      C2726   1.396       .  A
C2710      C2718   1.379       .  A
C2711      C2719   1.381       .  A
C2711      C2728   1.422       .  A
C2712      C2727   1.429       .  A
C2712      C2720   1.388       .  A
C2713      C2725   1.414       .  A
C2713      C2721   1.384       .  A
C2714      C2728   1.409       .  A
C2714      C2722   1.383       .  A
C2715      C2723   1.380       .  A
C2715      C2726   1.387       .  A
C2716      C2724   1.387       .  A
C2716      C2727   1.401       .  A
C2717      H2729   1.066       .  S
C2718      H2730   1.073       .  S
C2719      H2731   1.078       .  S
C2720      H2732   1.076       .  S
C2721      C2722   1.388       .  A
C2721      H2733   1.082       .  S
C2722      H2734   1.080       .  S
C2723      C2724   1.376       .  A
C2723      H2735   1.083       .  S
C2724      H2736   1.071       .  S
C2725      C3521   1.503       .  S
C2726      C3501   1.464       .  S
C2727      C3468   1.490       .  S
C2728      C3481   1.493       .  S
N2739      H2771   1.040       .  S
N2739      C2744   1.351       .  A
N2739      C2743   1.359       .  A
N2740      C2747   1.349       .  A
N2740      C2748   1.353       .  A
N2741      H2772   1.041       .  S
N2741      C2746   1.348       .  A
N2741      C2745   1.343       .  A
N2742      C2749   1.351       .  A
N2742      C2750   1.353       .  A
C2743      C2751   1.395       .  A
C2743      C2759   1.433       .  A
C2744      C2760   1.412       .  A
C2744      C2752   1.381       .  A
C2745      C2753   1.382       .  A
C2745      C2762   1.398       .  A
C2746      C2761   1.412       .  A
C2746      C2754   1.391       .  A
C2747      C2759   1.434       .  A
C2747      C2755   1.394       .  A
C2748      C2762   1.418       .  A
C2748      C2756   1.382       .  A
C2749      C2757   1.385       .  A
C2749      C2760   1.417       .  A
C2750      C2758   1.390       .  A
C2750      C2761   1.430       .  A
C2751      C2752   1.364       .  A
C2751      H2763   1.075       .  S
C2752      H2764   1.082       .  S
C2753      C2754   1.372       .  A
C2753      H2765   1.083       .  S
C2754      H2766   1.077       .  S
C2755      C2756   1.393       .  A
C2755      H2767   1.080       .  S
C2756      H2768   1.082       .  S
C2757      C2758   1.392       .  A
C2757      H2769   1.082       .  S
C2758      H2770   1.082       .  S
C2759      C3421   1.511       .  S
C2760      C3441   1.504       .  S
C2761      C3381   1.498       .  S
C2762      C3401   1.504       .  S
N2773      H2805   1.039       .  S
N2773      C2778   1.347       .  A
N2774      C2781   1.346       .  A
N2774      C2782   1.347       .  A
N2775      H2806   1.041       .  S
N2775      C2780   1.354       .  A
N2776      C2783   1.334       .  A
N2776      C2784   1.338       .  A
C2777      C2785   1.386       .  A
C2777      C2793   1.413       .  A
C2778      C2794   1.407       .  A
C2778      C2786   1.384       .  A
C2779      C2787   1.377       .  A
C2779      C2796   1.412       .  A
C2780      C2795   1.414       .  A
C2780      C2788   1.370       .  A
C2781      C2793   1.415       .  A
C2781      C2789   1.387       .  A
C2782      C2796   1.415       .  A
C2782      C2790   1.387       .  A
C2783      C2791   1.386       .  A
C2783      C2794   1.389       .  A
C2784      C2792   1.385       .  A
C2784      C2795   1.391       .  A
C2785      H2797   1.081       .  S
C2786      H2798   1.082       .  S
C2787      H2799   1.077       .  S
C2788      H2800   1.065       .  S
C2789      C2790   1.394       .  A
C2789      H2801   1.082       .  S
C2790      H2802   1.082       .  S
C2791      C2792   1.382       .  A
C2791      H2803   1.082       .  S
C2792      H2804   1.082       .  S
C2793      C3321   1.492       .  S
C2794      C3308   1.460       .  S
C2795      C3361   1.485       .  S
C2796      C3348   1.510       .  S
C2807      C2812   1.399       .  A
C2808      C2876   1.532       .  S
C2808      C2809   1.437       .  A
C2809      C2810   1.412       .  A
C2809      H2814   1.083       .  S
C2810      C3448   1.513       .  S
C2811      C3508   1.453       .  S
C2811      C2812   1.378       .  A
C2812      H2813   1.087       .  S
C2815      C2858   1.510       .  S
C2815      C2820   1.415       .  A
C2816      C2817   1.438       .  A
C2817      C2818   1.404       .  A
C2817      H2822   1.085       .  S
C2818      C3428   1.507       .  S
C2819      C3341   1.478       .  S
C2819      C2820   1.383       .  A
C2820      H2821   1.088       .  S
C2823      C2824   1.451       .  A
C2823      C2828   1.397       .  A
C2824      C2902   1.497       .  S
C2824      C2825   1.423       .  A
C2825      C2826   1.389       .  A
C2825      H2830   1.085       .  S
C2826      C3488   1.492       .  S
C2826      C2827   1.403       .  A
C2827      C3301   1.460       .  S
C2827      C2828   1.384       .  A
C2828      H2829   1.077       .  S
C2831      C2832   1.453       .  A
C2831      C2836   1.411       .  A
C2832      C2862   1.492       .  S
C2832      C2833   1.418       .  A
C2833      C2834   1.397       .  A
C2833      H2838   1.086       .  S
C2834      C3528   1.495       .  S
C2834      C2835   1.405       .  A
C2835      C3368   1.474       .  S
C2835      C2836   1.394       .  A
C2836      H2837   1.086       .  S
C2839      C2884   1.512       .  S
C2839      C2844   1.415       .  A
C2840      C2841   1.426       .  A
C2841      C2842   1.405       .  A
C2841      H2846   1.082       .  S
C2842      C3408   1.503       .  S
C2843      C3328   1.484       .  S
C2843      C2844   1.397       .  A
C2844      H2845   1.085       .  S
C2847      C2888   1.544       .  S
C2847      C2852   1.435       .  A
C2848      C2849   1.413       .  A
C2849      C2850   1.400       .  A
C2849      H2854   1.076       .  S
C2850      C3461   1.478       .  S
C2851      C3388   1.501       .  S
C2851      C2852   1.394       .  A
C2852      H2853   1.083       .  S
O2855     Ni2861   1.952       .  S
O2855      C2876   1.292       .  A
O2856     Ni2879   1.935       .  S
O2856      C2865   1.304       .  A
O2857     Ni2861   1.895       .  S
O2857     Ni2879   1.862       .  S
O2857     Ni2873   1.879       .  S
O2857      H2880   0.967       .  S
C2858      O2875   1.316       .  A
C2858      O2867   1.328       .  A
O2859     Ni2878   1.981       .  S
O2859      C2865   1.304       .  A
O2860     Ni2878   1.924       .  S
O2860      C2862   1.274       .  A
Ni2861     O2864   1.975       .  S
Ni2861     O2866   2.005       .  S
C2862      O2872   1.290       .  A
O2863     Ni2879   1.986       .  S
O2863      C2869   1.318       .  A
O2864      C2869   1.299       .  A
C2865      C3025   1.498       .  S
O2866      C2868   1.274       .  A
O2867     Ni2878   2.051       .  S
C2868      O2874   1.257       .  A
C2868      C2976   1.539       .  S
C2869      C3041   1.522       .  S
H2870      O2871   0.961       .  S
O2871     Ni2879   1.878       .  S
O2871     Ni2873   1.888       .  S
O2871     Ni2878   1.767       .  S
O2872     Ni2873   1.944       .  S
Ni2873     O2877   2.001       .  S
Ni2873     O2875   1.921       .  S
O2874     Ni2879   1.888       .  S
C2876      O2877   1.318       .  A
O2881     Ni2887   1.972       .  S
O2881      C2902   1.296       .  A
O2882     Ni2905   1.952       .  S
O2882      C2891   1.310       .  A
O2883     Ni2887   1.806       .  S
O2883     Ni2905   1.842   1_556  S
O2883     Ni2899   1.862       .  S
O2883      H2906   0.954       .  S
C2884      O2901   1.307       .  A
C2884      O2893   1.304       .  A
O2885     Ni2904   1.988   1_554  S
O2885      C2891   1.304       .  A
O2886     Ni2904   2.004       .  S
O2886      C2888   1.286       .  A
Ni2887     O2890   2.032   1_556  S
Ni2887     O2892   1.939   1_556  S
C2888      O2898   1.274       .  A
O2889     Ni2905   1.971       .  S
O2889      C2895   1.305       .  A
O2890      C2895   1.312       .  A
C2891      C3018   1.515       .  S
O2892      C2894   1.275       .  A
O2893     Ni2904   1.990       .  S
C2894      O2900   1.297       .  A
C2894      C3034   1.511       .  S
C2895      C3049   1.527       .  S
H2896      O2897   0.967       .  S
O2897     Ni2905   1.871   1_556  S
O2897     Ni2899   1.824       .  S
O2897     Ni2904   1.829       .  S
O2898     Ni2899   1.925       .  S
Ni2899     O2903   1.918       .  S
Ni2899     O2901   1.956       .  S
O2900     Ni2905   1.958       .  S
C2902      O2903   1.299       .  A
N2907      H2939   1.038       .  S
N2907      C2912   1.350       .  A
N2908      C2915   1.348       .  A
N2908      C2916   1.347       .  A
N2909      H2940   1.040       .  S
N2909      C2914   1.353       .  A
N2910      C2917   1.344       .  A
N2910      C2918   1.346       .  A
C2911      C2919   1.386       .  A
C2911      C2927   1.412       .  A
C2912      C2928   1.412       .  A
C2912      C2920   1.387       .  A
C2913      C2921   1.380       .  A
C2913      C2930   1.410       .  A
C2914      C2929   1.408       .  A
C2914      C2922   1.380       .  A
C2915      C2927   1.415       .  A
C2915      C2923   1.388       .  A
C2916      C2930   1.410       .  A
C2916      C2924   1.383       .  A
C2917      C2925   1.387       .  A
C2917      C2928   1.408       .  A
C2918      C2926   1.383       .  A
C2918      C2929   1.405       .  A
C2919      H2931   1.081       .  S
C2920      H2932   1.080       .  S
C2921      H2933   1.076       .  S
C2922      H2934   1.081       .  S
C2923      C2924   1.384       .  A
C2923      H2935   1.079       .  S
C2924      H2936   1.083       .  S
C2925      C2926   1.386       .  A
C2925      H2937   1.082       .  S
C2926      H2938   1.081       .  S
C2927      C3248   1.497       .  S
C2928      C3281   1.476       .  S
C2929      C3268   1.495       .  S
C2930      C3228   1.491       .  S
N2941      H2973   1.042       .  S
N2941      C2946   1.347       .  A
N2941      C2945   1.350       .  A
N2942      C2949   1.349       .  A
N2942      C2950   1.341       .  A
N2943      H2974   1.040       .  S
N2943      C2948   1.354       .  A
N2943      C2947   1.352       .  A
N2944      C2951   1.353       .  A
N2944      C2952   1.351       .  A
C2945      C2953   1.380       .  A
C2945      C2961   1.406       .  A
C2946      C2962   1.406       .  A
C2946      C2954   1.382       .  A
C2947      C2955   1.383       .  A
C2947      C2964   1.410       .  A
C2948      C2963   1.415       .  A
C2948      C2956   1.382       .  A
C2949      C2961   1.404       .  A
C2949      C2957   1.381       .  A
C2950      C2964   1.406       .  A
C2950      C2958   1.381       .  A
C2951      C2959   1.382       .  A
C2951      C2962   1.417       .  A
C2952      C2960   1.377       .  A
C2952      C2963   1.417       .  A
C2953      C2954   1.362       .  A
C2953      H2965   1.070       .  S
C2954      H2966   1.077       .  S
C2955      C2956   1.363       .  A
C2955      H2967   1.081       .  S
C2956      H2968   1.073       .  S
C2957      C2958   1.378       .  A
C2957      H2969   1.079       .  S
C2958      H2970   1.075       .  S
C2959      C2960   1.390       .  A
C2959      H2971   1.079   1_565  S
C2960      H2972   1.075   1_565  S
C2961      C3141   1.496       .  S
C2962      C3188   1.500       .  S
C2963      C3201   1.509       .  S
C2964      C3161   1.480       .  S
C2975      C2980   1.425       .  A
C2976      C2977   1.432       .  A
C2977      C2978   1.387       .  A
C2977      H2982   1.085       .  S
C2978      C3181   1.493       .  S
C2979      C3221   1.485       .  S
C2979      C2980   1.398       .  A
C2980      H2981   1.086       .  S
N2983      H3015   1.046       .  S
N2983      C2988   1.342       .  A
N2984      C2991   1.353       .  A
N2984      C2992   1.346       .  A
N2985      H3016   1.041       .  S
N2985      C2990   1.359       .  A
N2986      C2993   1.343       .  A
N2986      C2994   1.336       .  A
C2987      C2995   1.386       .  A
C2987      C3003   1.397       .  A
C2988      C3004   1.391       .  A
C2988      C2996   1.381       .  A
C2989      C2997   1.383       .  A
C2989      C3006   1.419       .  A
C2990      C3005   1.424       .  A
C2990      C2998   1.376       .  A
C2991      C3003   1.422       .  A
C2991      C2999   1.380       .  A
C2992      C3006   1.421       .  A
C2992      C3000   1.386       .  A
C2993      C3001   1.385       .  A
C2993      C3004   1.407       .  A
C2994      C3002   1.390       .  A
C2994      C3005   1.411       .  A
C2995      H3007   1.081       .  S
C2996      H3008   1.082       .  S
C2997      H3009   1.080       .  S
C2998      H3010   1.065       .  S
C2999      C3000   1.390       .  A
C2999      H3011   1.078       .  S
C3000      H3012   1.076       .  S
C3001      C3002   1.387       .  A
C3001      H3013   1.078       .  S
C3002      H3014   1.076       .  S
C3003      C3081   1.536       .  S
C3004      C3121   1.494       .  S
C3005      C3101   1.500       .  S
C3006      C3068   1.514       .  S
C3017      C3022   1.406       .  A
C3018      C3019   1.433       .  A
C3019      C3020   1.400       .  A
C3019      H3024   1.084       .  S
C3020      C3208   1.512       .  S
C3021      C3241   1.464       .  S
C3021      C3022   1.386       .  A
C3022      H3023   1.084       .  S
C3025      C3026   1.446       .  A
C3025      C3030   1.406       .  A
C3026      C3027   1.419       .  A
C3027      C3028   1.408       .  A
C3027      H3032   1.085       .  S
C3028      C3108   1.492       .  S
C3028      C3029   1.411       .  A
C3029      C3261   1.480       .  S
C3029      C3030   1.384       .  A
C3030      H3031   1.085       .  S
C3033      C3034   1.463       .  A
C3033      C3038   1.413       .  A
C3034      C3035   1.418       .  A
C3035      C3036   1.393       .  A
C3035      H3040   1.084       .  S
C3036      C3288   1.475       .  S
C3036      C3037   1.396       .  A
C3037      C3128   1.468       .  S
C3037      C3038   1.377       .  A
C3038      H3039   1.083       .  S
C3041      C3046   1.418       .  A
C3042      C3043   1.422       .  A
C3043      C3044   1.394       .  A
C3043      H3048   1.083       .  S
C3044      C3148   1.487       .  S
C3045      C3061   1.489       .  S
C3045      C3046   1.393       .  A
C3046      H3047   1.085       .  S
C3049      C3054   1.426       .  A
C3050      C3051   1.428       .  A
C3051      C3052   1.398       .  A
C3051      H3056   1.083       .  S
C3052      C3168   1.489       .  S
C3053      C3088   1.497       .  S
C3053      C3054   1.393       .  A
C3054      H3055   1.087       .  S
C3057      C3058   1.426       .  A
C3057      C3062   1.405       .  A
C3057      F3075   1.355       .  S
C3058      C3063   1.535       .  S
C3058      C3059   1.429       .  A
C3059      C3060   1.398       .  A
C3059      F3064   1.350       .  S
C3060      C3061   1.395       .  A
C3061      C3062   1.396       .  A
C3062      F3065   1.353       .  S
C3063      C3066   1.426       .  A
C3063      C3070   1.415       .  A
C3066      C3067   1.408       .  A
C3066      F3071   1.343       .  S
C3067      C3068   1.402       .  A
C3067      F3073   1.356       .  S
C3068      C3069   1.413       .  A
C3069      C3070   1.397       .  A
C3069      F3072   1.359       .  S
C3070      F3074   1.355       .  S
C3077      C3078   1.411       .  A
C3077      C3082   1.409       .  A
C3077      F3095   1.347       .  S
C3078      C3083   1.529       .  S
C3078      C3079   1.409       .  A
C3079      C3080   1.402       .  A
C3079      F3084   1.355       .  S
C3080      C3081   1.427       .  A
C3080      F3096   1.349       .  S
C3081      C3082   1.412       .  A
C3082      F3085   1.354       .  S
C3083      C3086   1.419       .  A
C3083      C3090   1.426       .  A
C3086      C3087   1.398       .  A
C3086      F3091   1.356       .  S
C3087      C3088   1.394       .  A
C3087      F3093   1.350       .  S
C3088      C3089   1.399       .  A
C3089      C3090   1.407       .  A
C3089      F3092   1.358       .  S
C3090      F3094   1.350       .  S
C3097      C3098   1.402       .  A
C3097      C3102   1.402       .  A
C3097      F3115   1.347       .  S
C3098      C3103   1.502       .  S
C3098      C3099   1.409       .  A
C3099      C3100   1.398       .  A
C3099      F3104   1.350       .  S
C3100      C3101   1.408       .  A
C3100      F3116   1.359       .  S
C3101      C3102   1.401       .  A
C3102      F3105   1.345       .  S
C3103      C3106   1.409       .  A
C3103      C3110   1.410       .  A
C3106      C3107   1.399       .  A
C3106      F3111   1.356       .  S
C3107      C3108   1.404       .  A
C3107      F3113   1.358       .  S
C3108      C3109   1.405       .  A
C3109      C3110   1.406       .  A
C3109      F3112   1.357       .  S
C3110      F3114   1.351       .  S
C3117      C3118   1.405       .  A
C3117      C3122   1.399       .  A
C3117      F3135   1.352       .  S
C3118      C3123   1.475       .  S
C3118      C3119   1.393       .  A
C3119      C3120   1.386       .  A
C3119      F3124   1.359       .  S
C3120      C3121   1.419       .  A
C3120      F3136   1.355       .  S
C3121      C3122   1.405       .  A
C3122      F3125   1.352       .  S
C3123      C3126   1.402       .  A
C3123      C3130   1.411       .  A
C3126      C3127   1.391       .  A
C3126      F3131   1.353       .  S
C3127      C3128   1.393       .  A
C3127      F3133   1.351       .  S
C3128      C3129   1.398       .  A
C3129      C3130   1.395       .  A
C3129      F3132   1.357       .  S
C3130      F3134   1.358       .  S
C3137      C3138   1.409       .  A
C3137      C3142   1.400       .  A
C3137      F3155   1.342       .  S
C3138      C3143   1.506       .  S
C3138      C3139   1.408       .  A
C3139      C3140   1.395       .  A
C3139      F3144   1.350       .  S
C3140      C3141   1.408       .  A
C3140      F3156   1.358       .  S
C3141      C3142   1.401       .  A
C3142      F3145   1.356       .  S
C3143      C3146   1.406       .  A
C3143      C3150   1.412       .  A
C3146      C3147   1.392       .  A
C3146      F3151   1.345       .  S
C3147      C3148   1.399       .  A
C3147      F3153   1.358       .  S
C3148      C3149   1.403       .  A
C3149      C3150   1.406       .  A
C3149      F3152   1.357       .  S
C3150      F3154   1.352       .  S
C3157      C3158   1.414       .  A
C3157      C3162   1.394       .  A
C3157      F3175   1.335       .  S
C3158      C3163   1.511       .  S
C3158      C3159   1.409       .  A
C3159      C3160   1.394       .  A
C3159      F3164   1.346       .  S
C3160      C3161   1.402       .  A
C3160      F3176   1.356       .  S
C3161      C3162   1.391       .  A
C3162      F3165   1.358       .  S
C3163      C3166   1.418       .  A
C3163      C3170   1.412       .  A
C3166      C3167   1.401       .  A
C3166      F3171   1.354       .  S
C3167      C3168   1.400       .  A
C3167      F3173   1.358       .  S
C3168      C3169   1.399       .  A
C3169      C3170   1.401       .  A
C3170      F3174   1.354       .  S
C3177      C3178   1.407       .  A
C3177      C3182   1.399       .  A
C3177      F3195   1.345       .  S
C3178      C3183   1.513       .  S
C3178      C3179   1.418       .  A
C3179      C3180   1.404       .  A
C3179      F3184   1.355       .  S
C3180      C3181   1.405       .  A
C3180      F3196   1.358       .  S
C3181      C3182   1.392       .  A
C3182      F3185   1.350       .  S
C3183      C3186   1.422       .  A
C3183      C3190   1.410       .  A
C3186      C3187   1.404       .  A
C3186      F3191   1.355       .  S
C3187      C3188   1.400       .  A
C3187      F3193   1.357       .  S
C3188      C3189   1.413       .  A
C3189      C3190   1.401       .  A
C3189      F3192   1.358       .  S
C3190      F3194   1.356       .  S
C3197      C3198   1.420       .  A
C3197      C3202   1.411       .  A
C3197      F3215   1.343       .  S
C3198      C3203   1.537       .  S
C3198      C3199   1.420       .  A
C3199      C3200   1.405       .  A
C3199      F3204   1.351       .  S
C3200      C3201   1.406       .  A
C3200      F3216   1.358       .  S
C3201      C3202   1.402       .  A
C3202      F3205   1.357       .  S
C3203      C3206   1.420       .  A
C3203      C3210   1.421       .  A
C3206      C3207   1.406       .  A
C3206      F3211   1.348       .  S
C3207      C3208   1.405       .  A
C3207      F3213   1.358   1_565  S
C3208      C3209   1.406       .  A
C3209      C3210   1.414       .  A
C3209      F3212   1.357       .  S
C3210      F3214   1.354       .  S
C3217      C3218   1.406       .  A
C3217      C3222   1.399       .  A
C3217      F3235   1.358       .  S
C3218      C3223   1.488       .  S
C3218      C3219   1.404       .  A
C3219      C3220   1.402       .  A
C3219      F3224   1.350       .  S
C3220      C3221   1.403       .  A
C3220      F3236   1.357       .  S
C3221      C3222   1.408       .  A
C3222      F3225   1.359       .  S
C3223      C3226   1.395       .  A
C3223      C3230   1.402       .  A
C3226      C3227   1.403       .  A
C3226      F3231   1.351       .  S
C3227      C3228   1.397       .  A
C3227      F3233   1.353       .  S
C3228      C3229   1.411       .  A
C3229      C3230   1.400       .  A
C3229      F3232   1.358       .  S
C3230      F3234   1.351       .  S
C3237      C3238   1.419       .  A
C3237      C3242   1.391       .  A
C3238      C3243   1.510       .  S
C3238      C3239   1.423       .  A
C3239      C3240   1.390       .  A
C3239      F3244   1.348       .  S
C3240      C3241   1.390       .  A
C3240      F3256   1.359       .  S
C3241      C3242   1.394       .  A
C3243      C3246   1.410       .  A
C3243      C3250   1.417       .  A
C3246      C3247   1.392       .  A
C3246      F3251   1.356       .  S
C3247      C3248   1.412       .  A
C3247      F3253   1.358       .  S
C3248      C3249   1.400       .  A
C3249      C3250   1.400       .  A
C3249      F3252   1.357       .  S
C3250      F3254   1.344       .  S
C3257      C3258   1.423       .  A
C3257      C3262   1.391       .  A
C3257      F3275   1.346       .  S
C3258      C3263   1.523       .  S
C3258      C3259   1.422       .  A
C3259      C3260   1.401       .  A
C3259      F3264   1.350       .  S
C3260      C3261   1.397       .  A
C3260      F3276   1.358       .  S
C3261      C3262   1.393       .  A
C3262      F3265   1.359       .  S
C3263      C3266   1.416       .  A
C3263      C3270   1.425       .  A
C3266      C3267   1.397       .  A
C3266      F3271   1.355       .  S
C3267      C3268   1.407       .  A
C3267      F3273   1.360       .  S
C3268      C3269   1.396       .  A
C3269      C3270   1.406       .  A
C3269      F3272   1.355       .  S
C3270      F3274   1.352       .  S
C3277      C3278   1.411       .  A
C3277      C3282   1.393       .  A
C3277      F3295   1.358       .  S
C3278      C3283   1.494       .  S
C3278      C3279   1.411       .  A
C3279      C3280   1.400       .  A
C3279      F3284   1.354       .  S
C3280      C3281   1.398       .  A
C3280      F3296   1.355       .  S
C3281      C3282   1.402       .  A
C3282      F3285   1.358       .  S
C3283      C3286   1.411       .  A
C3283      C3290   1.411       .  A
C3286      C3287   1.398       .  A
C3286      F3291   1.358       .  S
C3287      C3288   1.398       .  A
C3287      F3293   1.358       .  S
C3288      C3289   1.400       .  A
C3289      C3290   1.397       .  A
C3289      F3292   1.358       .  S
C3290      F3294   1.354       .  S
C3297      C3298   1.414       .  A
C3297      C3302   1.391       .  A
C3297      F3315   1.349       .  S
C3298      C3303   1.490       .  S
C3298      C3299   1.404       .  A
C3299      C3300   1.384       .  A
C3299      F3304   1.346       .  S
C3300      C3301   1.389       .  A
C3300      F3316   1.354       .  S
C3301      C3302   1.397       .  A
C3302      F3305   1.358       .  S
C3303      C3306   1.408       .  A
C3303      C3310   1.424       .  A
C3306      C3307   1.389       .  A
C3306      F3311   1.356       .  S
C3307      C3308   1.403       .  A
C3307      F3313   1.358       .  S
C3308      C3309   1.387       .  A
C3309      C3310   1.385       .  A
C3309      F3312   1.358       .  S
C3310      F3314   1.354       .  S
C3317      C3318   1.403       .  A
C3317      C3322   1.393       .  A
C3317      F3335   1.354       .  S
C3318      C3323   1.493       .  S
C3318      C3319   1.405       .  A
C3319      C3320   1.409       .  A
C3319      F3324   1.349       .  S
C3320      C3321   1.405       .  A
C3320      F3336   1.355       .  S
C3321      C3322   1.408       .  A
C3322      F3325   1.357       .  S
C3323      C3326   1.405       .  A
C3323      C3330   1.406       .  A
C3326      C3327   1.403       .  A
C3326      F3331   1.353       .  S
C3327      C3328   1.402       .  A
C3327      F3333   1.358       .  S
C3328      C3329   1.402       .  A
C3329      C3330   1.397       .  A
C3330      F3334   1.350       .  S
C3337      C3338   1.416       .  A
C3337      C3342   1.397       .  A
C3337      F3355   1.343       .  S
C3338      C3343   1.518       .  S
C3338      C3339   1.419       .  A
C3339      C3340   1.392       .  A
C3339      F3344   1.346       .  S
C3340      C3341   1.396       .  A
C3341      C3342   1.394       .  A
C3342      F3345   1.358       .  S
C3343      C3346   1.421       .  A
C3343      C3350   1.408       .  A
C3346      C3347   1.409       .  A
C3346      F3351   1.349       .  S
C3347      C3348   1.402       .  A
C3347      F3353   1.357       .  S
C3348      C3349   1.415       .  A
C3349      C3350   1.395       .  A
C3349      F3352   1.359       .  S
C3350      F3354   1.355       .  S
C3357      C3358   1.412       .  A
C3357      C3362   1.404       .  A
C3357      F3375   1.352       .  S
C3358      C3363   1.497       .  S
C3358      C3359   1.413       .  A
C3359      C3360   1.389       .  A
C3359      F3364   1.353       .  S
C3360      C3361   1.399       .  A
C3360      F3376   1.359       .  S
C3361      C3362   1.403       .  A
C3362      F3365   1.355       .  S
C3363      C3366   1.410       .  A
C3363      C3370   1.411       .  A
C3366      C3367   1.397       .  A
C3366      F3371   1.351       .  S
C3367      C3368   1.402       .  A
C3367      F3373   1.358       .  S
C3368      C3369   1.396       .  A
C3369      C3370   1.394       .  A
C3369      F3372   1.358       .  S
C3370      F3374   1.351       .  S
C3377      C3378   1.407       .  A
C3377      C3382   1.403       .  A
C3377      F3395   1.347       .  S
C3378      C3383   1.508       .  S
C3378      C3379   1.411       .  A
C3379      C3380   1.405       .  A
C3379      F3384   1.355       .  S
C3380      C3381   1.408       .  A
C3380      F3396   1.355       .  S
C3381      C3382   1.400       .  A
C3382      F3385   1.355       .  S
C3383      C3386   1.413       .  A
C3383      C3390   1.414       .  A
C3386      C3387   1.400       .  A
C3386      F3391   1.358       .  S
C3387      C3388   1.400       .  A
C3387      F3393   1.350       .  S
C3388      C3389   1.405       .  A
C3389      C3390   1.409       .  A
C3389      F3392   1.357       .  S
C3390      F3394   1.357       .  S
C3397      C3398   1.409       .  A
C3397      C3402   1.407       .  A
C3397      F3415   1.347       .  S
C3398      C3403   1.496       .  S
C3398      C3399   1.399       .  A
C3399      C3400   1.404       .  A
C3399      F3404   1.357       .  S
C3400      C3401   1.421       .  A
C3400      F3416   1.356       .  S
C3401      C3402   1.398       .  A
C3402      F3405   1.354       .  S
C3403      C3406   1.400       .  A
C3403      C3410   1.402       .  A
C3406      C3407   1.407       .  A
C3406      F3411   1.350       .  S
C3407      C3408   1.405       .  A
C3407      F3413   1.354       .  S
C3408      C3409   1.411       .  A
C3409      C3410   1.402       .  A
C3409      F3412   1.356       .  S
C3410      F3414   1.355       .  S
C3417      C3418   1.394       .  A
C3417      C3422   1.400       .  A
C3417      F3435   1.338       .  S
C3418      C3423   1.508       .  S
C3418      C3419   1.408       .  A
C3419      C3420   1.409       .  A
C3419      F3424   1.351       .  S
C3420      C3421   1.412       .  A
C3420      F3436   1.357       .  S
C3421      C3422   1.401       .  A
C3422      F3425   1.350       .  S
C3423      C3426   1.412       .  A
C3423      C3430   1.411       .  A
C3426      C3427   1.401       .  A
C3426      F3431   1.357       .  S
C3427      C3428   1.406       .  A
C3427      F3433   1.357       .  S
C3428      C3429   1.412       .  A
C3429      C3430   1.414       .  A
C3429      F3432   1.357       .  S
C3430      F3434   1.356       .  S
C3437      C3438   1.401       .  A
C3437      C3442   1.404       .  A
C3437      F3455   1.348       .  S
C3438      C3443   1.510       .  S
C3438      C3439   1.407       .  A
C3439      C3440   1.409       .  A
C3439      F3444   1.342       .  S
C3440      C3441   1.402       .  A
C3440      F3456   1.356       .  S
C3441      C3442   1.414       .  A
C3442      F3445   1.359       .  S
C3443      C3446   1.411       .  A
C3443      C3450   1.403       .  A
C3446      C3447   1.415       .  A
C3446      F3451   1.357       .  S
C3447      C3448   1.414       .  A
C3447      F3453   1.357       .  S
C3448      C3449   1.405       .  A
C3449      C3450   1.408       .  A
C3449      F3452   1.354       .  S
C3450      F3454   1.350       .  S
C3457      C3458   1.409       .  A
C3457      C3462   1.399       .  A
C3457      F3475   1.358       .  S
C3458      C3463   1.489       .  S
C3458      C3459   1.410       .  A
C3459      C3460   1.397       .  A
C3459      F3464   1.357       .  S
C3460      C3461   1.402       .  A
C3460      F3476   1.358       .  S
C3461      C3462   1.399       .  A
C3462      F3465   1.356       .  S
C3463      C3466   1.404       .  A
C3463      C3470   1.405       .  A
C3466      C3467   1.401       .  A
C3466      F3471   1.357   1_655  S
C3467      C3468   1.404       .  A
C3467      F3473   1.349       .  S
C3468      C3469   1.393       .  A
C3469      C3470   1.389       .  A
C3469      F3472   1.354       .  S
C3470      F3474   1.342       .  S
C3477      C3478   1.411       .  A
C3477      C3482   1.395       .  A
C3477      F3495   1.352       .  S
C3478      C3483   1.510       .  S
C3478      C3479   1.416       .  A
C3479      C3480   1.405       .  A
C3479      F3484   1.350       .  S
C3480      C3481   1.401       .  A
C3480      F3496   1.357       .  S
C3481      C3482   1.402       .  A
C3482      F3485   1.353       .  S
C3483      C3486   1.416       .  A
C3483      C3490   1.408       .  A
C3486      C3487   1.407       .  A
C3486      F3491   1.357       .  S
C3487      C3488   1.405       .  A
C3487      F3493   1.358       .  S
C3488      C3489   1.401       .  A
C3489      C3490   1.398       .  A
C3489      F3492   1.358       .  S
C3490      F3494   1.348       .  S
C3497      C3498   1.403       .  A
C3497      C3502   1.387       .  A
C3497      F3515   1.357       .  S
C3498      C3503   1.469       .  S
C3498      C3499   1.404       .  A
C3499      C3500   1.394       .  A
C3499      F3504   1.356       .  S
C3500      C3501   1.392       .  A
C3500      F3516   1.354       .  S
C3501      C3502   1.404       .  A
C3502      F3505   1.357       .  S
C3503      C3506   1.408       .  A
C3503      C3510   1.404       .  A
C3506      C3507   1.394       .  A
C3506      F3511   1.356       .  S
C3507      C3508   1.399       .  A
C3507      F3513   1.357       .  S
C3508      C3509   1.390       .  A
C3509      C3510   1.377       .  A
C3510      F3514   1.349       .  S
C3517      C3518   1.417       .  A
C3517      C3522   1.402       .  A
C3517      F3535   1.348       .  S
C3518      C3523   1.516       .  S
C3518      C3519   1.411       .  A
C3519      C3520   1.403       .  A
C3519      F3524   1.357       .  S
C3520      C3521   1.413       .  A
C3520      F3536   1.358       .  S
C3521      C3522   1.400       .  A
C3522      F3525   1.357       .  S
C3523      C3526   1.413       .  A
C3523      C3530   1.417       .  A
C3526      C3527   1.402       .  A
C3526      F3531   1.351       .  S
C3527      C3528   1.397       .  A
C3527      F3533   1.351       .  S
C3528      C3529   1.404       .  A
C3529      C3530   1.405       .  A
C3529      F3532   1.358       .  S
C3530      F3534   1.357       .  S
