geometry optimzed in LAMMPS
_audit_creation_date              2020-11-30 
_audit_creation_method            'lammps2cif' 
_symmetry_space_group_name_H-M    'P1' 
_symmetry_Int_Tables_number       1 
_symmetry_cell_setting            triclinic 
loop_ 
_symmetry_equiv_pos_as_xyz 
  x,y,z 
_cell_length_a                    34.58335813 
_cell_length_b                    34.906482100952 
_cell_length_c                    65.20829188904625 
_cell_angle_alpha                 91.31492926218388 
_cell_angle_beta                  90.77553775814789 
_cell_angle_gamma                 119.54768263030705 
loop_ 
_atom_site_label 
_atom_site_type_symbol 
_atom_site_fract_x 
_atom_site_fract_y 
_atom_site_fract_z 
_atom_site_charge 
C1          C  0.27129175  0.27618769  0.11562062     0.80900
N2          N  0.26700105  0.30882030  0.12518247    -0.77400
C3          C  0.29833478  0.33708597  0.13895362     0.83400
N4          N  0.33401673  0.33222674  0.14338617    -0.77300
C5          C  0.33879974  0.29947674  0.13422403     0.83500
N6          N  0.30712829  0.27114895  0.12031604    -0.79000
C7          C  0.62209683  0.28552739  0.25156214     0.46200
H8          H  0.61737006  0.28441644  0.26837017    -0.02900
C9          C  0.63302605  0.28627396  0.21216399     0.46200
H10         H  0.63779021  0.28675478  0.19532202    -0.02900
C11         C  0.58500526  0.28736420  0.23886016    -0.16600
C12         C  0.66546022  0.32553231  0.24504479    -0.16300
C13         C  0.62347587  0.24467344  0.24280707    -0.16700
C14         C  0.59095559  0.28767431  0.21802031    -0.16700
C15         C  0.67126372  0.32554648  0.22413265    -0.16200
C16         C  0.62879672  0.24508511  0.22197309    -0.16600
C17         C  0.31196383  0.63167838  0.26072716     0.46200
H18         H  0.30926735  0.62676036  0.27750802    -0.02900
C19         C  0.31921631  0.64238621  0.22122338     0.46200
H20         H  0.32134606  0.64651828  0.20437622    -0.02900
C21         C  0.35398917  0.67404577  0.25467711    -0.16600
C22         C  0.31454183  0.59445543  0.24870306    -0.16300
C23         C  0.27292762  0.63428080  0.25052650    -0.16700
C24         C  0.35777268  0.67954350  0.23386523    -0.16700
C25         C  0.31828678  0.60025349  0.22788573    -0.16200
C26         C  0.27688613  0.63953643  0.22969800    -0.16600
C27         C  0.96616991  0.64406451  0.12792712     0.80900
N28         N  0.92745469  0.61237890  0.13550834    -0.77400
C29         C  0.92778805  0.58701913  0.15085748     0.83400
N30         N  0.96723425  0.59319222  0.15848068    -0.77300
C31         C  0.00626528  0.62463062  0.15099542     0.83500
N32         N  0.00565347  0.65028290  0.13575309    -0.79000
C33         C  0.67556192  0.94841472  0.12517605     0.80900
N34         N  0.68558564  0.98767369  0.13459175    -0.77400
C35         C  0.65818187  0.98926687  0.14899397     0.83400
N36         N  0.62178350  0.95135522  0.15428336    -0.77300
C37         C  0.61206556  0.91211499  0.14522761     0.83500
N38         N  0.63869987  0.91094778  0.13046645    -0.79000
C39         C  0.96594159  0.65612151  0.34340861     0.80900
N40         N  0.00844762  0.66593076  0.33943988    -0.77400
C41         C  0.01638730  0.63765394  0.32805492     0.83400
N42         N  0.98155851  0.59969434  0.32044541    -0.77300
C43         C  0.93906774  0.58935353  0.32392447     0.83500
N44         N  0.93105617  0.61765244  0.33551762    -0.79000
C45         C  0.65196172  0.96583782  0.35598695     0.80900
N46         N  0.61241511  0.92968169  0.35067998    -0.77400
C47         C  0.58310014  0.93286415  0.33776424     0.83400
N48         N  0.59335214  0.97255784  0.33032009    -0.77300
C49         C  0.63274436  0.00909216  0.33539681     0.83500
N50         N  0.66222868  0.00563438  0.34823206    -0.79000
C51         C  0.27926546  0.26882343  0.34925090     0.80900
N52         N  0.31439861  0.26675250  0.34143450    -0.77400
C53         C  0.33894749  0.29428616  0.32665902     0.83400
N54         N  0.32849536  0.32452395  0.31982540    -0.77300
C55         C  0.29372539  0.32742642  0.32760618     0.83500
N56         N  0.26898654  0.29940995  0.34238000    -0.79000
O57         O  0.07133892  0.94283961  0.49888600    -0.80200
O58         O  0.92815263  0.94978560  0.44326970    -0.64900
O59         O  0.01677200  0.97575237  0.48503079    -1.11500
C60         C  0.89632243  0.86065428  0.51934765     1.06700
O61         O  0.88101520  0.94914657  0.46606402    -0.78100
O62         O  0.89900497  0.95623727  0.50671402    -0.65700
Ni63       Ni  0.07360480  0.98324458  0.47858098     1.34900
C64         C  0.93343558  0.97650063  0.51830009     0.85400
O65         O  0.01363993  0.01081342  0.44711392    -0.78600
O66         O  0.08159447  0.02543499  0.45813738    -0.88900
C67         C  0.89429281  0.95304713  0.44771648     0.85000
O68         O  0.05462007  0.93704339  0.45810210    -0.67100
O69         O  0.87114846  0.86805276  0.50752265    -0.86400
C70         C  0.01957959  0.91551978  0.44699760     0.85800
C71         C  0.05593203  0.03299102  0.44672030     1.07400
H72         H  0.92986607  0.88812739  0.47402709     0.39200
O73         O  0.93584280  0.91577071  0.48050187    -1.09000
O74         O  0.96601526  0.96904208  0.51782733    -0.65700
Ni75       Ni  0.97875833  0.92874676  0.50221159     1.26300
O76         O  0.98646093  0.92207275  0.44785093    -0.65900
O77         O  0.93866376  0.88126208  0.51870712    -0.78200
C78         C  0.06048728  0.94147747  0.51752959     0.85200
O79         O  0.02515171  0.94186656  0.52234061    -0.65400
Ni80       Ni  0.87922893  0.90928481  0.48666159     1.27400
Ni81       Ni  0.97393463  0.96267762  0.46341001     1.26100
H82         H  0.02251747  0.00330862  0.49152260     0.39800
O83         O  0.98879418  0.85456495  0.00243596    -0.80200
O84         O  0.98303266  0.99424912  0.94531545    -0.64900
O85         O  0.01720865  0.93831149  0.98579825    -1.11500
C86         C  0.91435685  0.95673372  0.02643254     1.06700
O87         O  0.99173820  0.04603126  0.96813688    -0.78100
O88         O  0.01290628  0.04361698  0.00777174    -0.65700
Ni89       Ni  0.02264859  0.88759640  0.97941130     1.34900
C90         C  0.03256678  0.02782960  0.01830684     0.85400
O91         O  0.04370575  0.96852000  0.94615869    -0.78600
O92         O  0.05866581  0.91595967  0.95628145    -0.88900
C93         C  0.98673521  0.03156078  0.94968766     0.85000
O94         O  0.97069109  0.85769666  0.96217672    -0.67100
O95         O  0.92375145  0.98961681  0.01528348    -0.86400
C96         C  0.94823495  0.87003597  0.95140987     0.85800
C97         C  0.06434188  0.94695571  0.94451196     1.07400
H98         H  0.92823093  0.94079929  0.97927856     0.39200
O99         O  0.95799518  0.96164746  0.98436316    -1.09000
O100        O  0.01932817  0.98693780  0.01870637    -0.65700
Ni101      Ni  0.97418190  0.93400419  0.00509869     1.26300
O102        O  0.95581638  0.90976750  0.95140838    -0.65900
O103        O  0.93073052  0.93129547  0.02395730    -0.78200
C104        C  0.99043279  0.86880440  0.02075675     0.85200
O105        O  0.99108399  0.90481756  0.02453781    -0.65400
Ni106      Ni  0.95857996  0.01546815  0.99159576     1.27400
Ni107      Ni  0.00010679  0.96482391  0.96483212     1.26100
H108        H  0.04638678  0.96047695  0.99081394     0.39800
C109        C  0.99185183  0.20641472  0.63968860     0.80900
N110        N  0.95259270  0.20436259  0.64437484    -0.77400
C111        C  0.95187648  0.23424125  0.65796180     0.83400
N112        N  0.99071187  0.26623485  0.66677019    -0.77300
C113        C  0.02994848  0.26829330  0.66226523     0.83500
N114        N  0.03019940  0.23815464  0.64885527    -0.79000
C115        C  0.00263801  0.24356853  0.83844446     0.80900
N116        N  0.96000561  0.23547558  0.83615334    -0.77400
C117        C  0.95070832  0.26290451  0.82549894     0.83400
N118        N  0.98426945  0.29833211  0.81681705    -0.77300
C119        C  0.02686760  0.30695775  0.81871190     0.83500
N120        N  0.03629119  0.27948806  0.82961350    -0.79000
C121        C  0.65795486  0.27669605  0.71567153     0.46200
H122        H  0.65973218  0.28162538  0.69889231    -0.02900
C123        C  0.65273088  0.26289040  0.75493303     0.46200
H124        H  0.65061501  0.25727518  0.77166389    -0.02900
C125        C  0.69650987  0.27182882  0.72451072    -0.16600
C126        C  0.65769690  0.31394302  0.72881539    -0.16300
C127        C  0.61582744  0.23468923  0.72145346    -0.16700
C128        C  0.69427795  0.26520917  0.74526662    -0.16700
C129        C  0.65532498  0.30660657  0.74953174    -0.16200
C130        C  0.61288690  0.22730212  0.74211838    -0.16600
C131        C  0.32382212  0.60044429  0.71461218     0.46200
H132        H  0.32022683  0.59496001  0.69766326    -0.02900
C133        C  0.33249957  0.61341789  0.75421408     0.46200
H134        H  0.33602131  0.61894813  0.77116073    -0.02900
C135        C  0.31887350  0.63976700  0.72205723    -0.16600
C136        C  0.28935370  0.56125063  0.72628072    -0.16300
C137        C  0.36928133  0.60944421  0.72336709    -0.16700
C138        C  0.32333220  0.64648578  0.74306855    -0.16700
C139        C  0.29403058  0.56768263  0.74731526    -0.16200
C140        C  0.37397036  0.61696631  0.74434664    -0.16600
C141        C  0.26023547  0.92527372  0.63487521     0.80900
N142        N  0.26492805  0.89183508  0.64289354    -0.77400
C143        C  0.30212599  0.90144533  0.65436320     0.83400
N144        N  0.33387432  0.94395018  0.65770853    -0.77300
C145        C  0.32958826  0.97739733  0.65009538     0.83500
N146        N  0.29257964  0.96798541  0.63874795    -0.79000
C147        C  0.68819715  0.62775202  0.62131572     0.80900
N148        N  0.66105539  0.63953755  0.63120307    -0.77400
C149        C  0.63483301  0.61445049  0.64635699     0.83400
N150        N  0.63666873  0.57803931  0.65185461    -0.77300
C151        C  0.66397719  0.56628322  0.64216698     0.83500
N152        N  0.68923592  0.59095517  0.62672732    -0.79000
C153        C  0.71119419  0.66014035  0.83969674     0.80900
N154        N  0.67443573  0.65723365  0.83009462    -0.77400
C155        C  0.64723169  0.62094601  0.81816843     0.83400
N156        N  0.65689037  0.58804165  0.81597207    -0.77300
C157        C  0.69330017  0.59042471  0.82521892     0.83500
N158        N  0.72074710  0.62676190  0.83699938    -0.79000
C159        C  0.27131196  0.93934867  0.83254544     0.80900
N160        N  0.26514235  0.90213621  0.82266126    -0.77400
C161        C  0.29243928  0.90397927  0.80759689     0.83400
N162        N  0.32655141  0.94367384  0.80241524    -0.77300
C163        C  0.33317244  0.98142215  0.81220823     0.83500
N164        N  0.30543866  0.97911291  0.82732903    -0.79000
C165        C  0.47850420  0.62002297  0.76898700     0.19400
C166        C  0.50394835  0.60037233  0.76352508    -0.18700
C167        C  0.54223053  0.60953186  0.77487407    -0.11000
C168        C  0.55582916  0.63816968  0.79232926     0.21600
C169        C  0.53131710  0.65903030  0.79748097    -0.20300
C170        C  0.49289107  0.64993427  0.78605024    -0.11200
C171        C  0.59526361  0.64641116  0.80528232    -0.15300
C172        C  0.60750170  0.61552961  0.80687139    -0.29200
C173        C  0.43737933  0.60776700  0.75645355    -0.03400
C174        C  0.41439658  0.62950511  0.75730001    -0.40000
H175        H  0.49424096  0.57782360  0.75031671     0.12800
H176        H  0.56122652  0.59426227  0.76976234     0.12400
H177        H  0.54130943  0.68160030  0.81068314     0.11900
H178        H  0.47444938  0.66583247  0.79100576     0.12100
H179        H  0.61358431  0.67749053  0.81392338     0.14800
H180        H  0.58747968  0.58367626  0.79909718     0.13600
H181        H  0.42588560  0.57986476  0.74566047     0.11300
H182        H  0.42351440  0.65633219  0.76839038     0.13300
C183        C  0.54066708  0.60955346  0.67936319     0.19400
C184        C  0.50041003  0.57419866  0.68553938    -0.18700
C185        C  0.46899749  0.58169241  0.69535093    -0.11000
C186        C  0.47734809  0.62491691  0.69938123     0.21600
C187        C  0.51798246  0.66036900  0.69360434    -0.20300
C188        C  0.54928487  0.65285418  0.68353396    -0.11200
C189        C  0.44547504  0.63351430  0.71087477    -0.15300
C190        C  0.40143782  0.60542509  0.70992624    -0.29200
C191        C  0.57338061  0.59970939  0.66949186    -0.03400
C192        C  0.60423117  0.62664938  0.65648927    -0.40000
H193        H  0.49326381  0.54056784  0.68280417     0.12800
H194        H  0.43875987  0.55357447  0.70027991     0.12400
H195        H  0.52553208  0.69393628  0.69693503     0.11900
H196        H  0.58052904  0.68093045  0.67955598     0.12100
H197        H  0.45856171  0.66322764  0.72058154     0.14800
H198        H  0.38771753  0.57830849  0.69864164     0.13600
H199        H  0.57042531  0.56782489  0.67234489     0.11300
H200        H  0.60602454  0.65746618  0.65246191     0.13300
C201        C  0.30677579  0.81755434  0.77584385     0.19400
C202        C  0.34426236  0.81467257  0.77025257    -0.18700
C203        C  0.33975430  0.77498253  0.76257254    -0.11000
C204        C  0.29748307  0.73736098  0.76012642     0.21600
C205        C  0.25978623  0.74054687  0.76493476    -0.20300
C206        C  0.26430975  0.78018722  0.77286310    -0.11200
C207        C  0.29227311  0.69558650  0.75127824    -0.15300
C208        C  0.32295541  0.68330164  0.75460694    -0.29200
C209        C  0.31327767  0.86006206  0.78456769    -0.03400
C210        C  0.28477484  0.86238668  0.79763789    -0.40000
H211        H  0.37721833  0.84312651  0.77203839     0.12800
H212        H  0.36934973  0.77402810  0.75817532     0.12400
H213        H  0.22685190  0.71225558  0.76267612     0.11900
H214        H  0.23450146  0.78156634  0.77630058     0.12100
H215        H  0.26351325  0.67532207  0.74129084     0.14800
H216        H  0.34916437  0.70082248  0.76618208     0.13600
H217        H  0.34383197  0.88992864  0.78121149     0.11300
H218        H  0.25562682  0.83247024  0.80215950     0.13300
C219        C  0.31701856  0.73806440  0.69634635     0.19400
C220        C  0.33552913  0.78246582  0.70264003    -0.18700
C221        C  0.32362150  0.81027513  0.69271096    -0.11000
C222        C  0.29340112  0.79472490  0.67577940     0.21600
C223        C  0.27420429  0.75010679  0.66963559    -0.20300
C224        C  0.28596066  0.72202308  0.67971380    -0.11200
C225        C  0.28156602  0.82455422  0.66451390    -0.15300
C226        C  0.31042009  0.86796894  0.66379362    -0.29200
C227        C  0.33024527  0.71013980  0.70822811    -0.03400
C228        C  0.30875586  0.66581006  0.70732941    -0.40000
H229        H  0.35888743  0.79566975  0.71558987     0.12800
H230        H  0.33777367  0.84382292  0.69864829     0.12400
H231        H  0.25053601  0.73709677  0.65681024     0.11900
H232        H  0.27083531  0.68811856  0.67424618     0.12100
H233        H  0.24953877  0.81067657  0.65647308     0.14800
H234        H  0.34321887  0.88093780  0.67092692     0.13600
H235        H  0.35744713  0.72697015  0.71944542     0.11300
H236        H  0.28283109  0.64736677  0.69582311     0.13300
C237        C  0.66252608  0.40119554  0.69185237     0.19400
C238        C  0.69189772  0.42712930  0.67687287    -0.18700
C239        C  0.68710308  0.46052831  0.66779071    -0.11000
C240        C  0.65217447  0.46820475  0.67332132     0.21600
C241        C  0.62245058  0.44171579  0.68809209    -0.20300
C242        C  0.62734403  0.40847909  0.69719266    -0.11200
C243        C  0.64639145  0.50441906  0.66492196    -0.15300
C244        C  0.66799686  0.52812979  0.64870674    -0.29200
C245        C  0.66852490  0.36594048  0.70111530    -0.03400
C246        C  0.65440273  0.35107786  0.71991873    -0.40000
H247        H  0.71910511  0.42198331  0.67241318     0.12800
H248        H  0.71140703  0.48048792  0.65681367     0.12400
H249        H  0.59519295  0.44671815  0.69262442     0.11900
H250        H  0.60306132  0.38820452  0.70815066     0.12100
H251        H  0.62344417  0.51224584  0.67272317     0.14800
H252        H  0.69018218  0.52057043  0.64016699     0.13600
H253        H  0.68651550  0.35314508  0.69245280     0.11300
H254        H  0.63995158  0.36663083  0.72925215     0.13300
C255        C  0.67760045  0.47884776  0.80506216     0.19400
C256        C  0.63982513  0.43722886  0.80164804    -0.18700
C257        C  0.64202016  0.40433695  0.78998606    -0.11000
C258        C  0.68225883  0.41231034  0.78137917     0.21600
C259        C  0.72048993  0.45342456  0.78536620    -0.20300
C260        C  0.71834054  0.48638170  0.79718162    -0.11200
C261        C  0.68422611  0.38032854  0.76652866    -0.15300
C262        C  0.65464372  0.33685019  0.76576078    -0.29200
C263        C  0.67108558  0.51465953  0.81410563    -0.03400
C264        C  0.70353530  0.55443371  0.82123045    -0.40000
H265        H  0.60788151  0.43070743  0.80728651     0.12800
H266        H  0.61156161  0.37365670  0.78685173     0.12400
H267        H  0.75182381  0.46055196  0.77875852     0.11900
H268        H  0.74797636  0.51825861  0.79910554     0.12100
H269        H  0.71070874  0.39316696  0.75552712     0.14800
H270        H  0.63079445  0.32229577  0.77779132     0.13600
H271        H  0.63703099  0.50848988  0.81380747     0.11300
H272        H  0.73758259  0.56127804  0.82316888     0.13300
C273        C  0.43984070  0.07538251  0.67136202     0.19400
C274        C  0.48236238  0.08064288  0.67490574    -0.18700
C275        C  0.51535823  0.11774788  0.68562957    -0.11000
C276        C  0.50659226  0.15061000  0.69320700     0.21600
C277        C  0.46431064  0.14585788  0.68945038    -0.20300
C278        C  0.43125588  0.10876833  0.67848129    -0.11200
C279        C  0.53941340  0.18723582  0.70689974    -0.15300
C280        C  0.58364035  0.20389019  0.70554970    -0.29200
C281        C  0.40465976  0.03232447  0.66248049    -0.03400
C282        C  0.36431801  0.02350870  0.65513348    -0.40000
H283        H  0.48971601  0.05514749  0.66993095     0.12800
H284        H  0.54699666  0.11950476  0.68882722     0.12400
H285        H  0.45655731  0.17042996  0.69541740     0.17900
H286        H  0.39867051  0.10552380  0.67648564     0.12100
H287        H  0.52680571  0.19977434  0.71895886     0.14800
H288        H  0.59704212  0.19500587  0.69247828     0.13600
H289        H  0.41220602  0.00555537  0.66266955     0.11300
H290        H  0.35618726  0.04957960  0.65340262     0.13300
C291        C  0.44181978  0.06960551  0.78817570     0.19400
C292        C  0.47433419  0.06616796  0.77691542    -0.18700
C293        C  0.51266430  0.10373128  0.77104619    -0.11000
C294        C  0.51928149  0.14594835  0.77609139     0.21600
C295        C  0.48744195  0.14965781  0.78780315    -0.20300
C296        C  0.44886348  0.11190297  0.79369601    -0.11200
C297        C  0.55851029  0.18634000  0.76887148    -0.15300
C298        C  0.57691241  0.18663909  0.75081304    -0.29200
C299        C  0.40125081  0.02798935  0.79333624    -0.03400
C300        C  0.37116945  0.02467587  0.80711946    -0.40000
H301        H  0.47008823  0.03412798  0.77260074     0.12800
H302        H  0.53711588  0.09952791  0.76260366     0.12400
H303        H  0.49185914  0.18184657  0.79191952     0.11900
H304        H  0.42455470  0.11623687  0.80214579     0.12100
H305        H  0.56990195  0.21711609  0.77758841     0.14800
H306        H  0.56282309  0.15681957  0.74117749     0.13600
H307        H  0.39682792  0.99798359  0.78575032     0.11300
H308        H  0.37496302  0.05358964  0.81546731     0.13300
C309        C  0.77087813  0.26029407  0.78740288     0.19400
C310        C  0.77157467  0.22676638  0.79859085    -0.18700
C311        C  0.81123721  0.23346729  0.80803978    -0.11000
C312        C  0.85070387  0.27421584  0.80661059     0.21600
C313        C  0.84900903  0.30829670  0.79638215    -0.20300
C314        C  0.80970861  0.30152423  0.78692631    -0.11200
C315        C  0.89507177  0.28275734  0.81421401    -0.15300
C316        C  0.90416541  0.25268318  0.82212312    -0.29200
C317        C  0.73002750  0.25201265  0.77587099    -0.03400
C318        C  0.73286435  0.26966519  0.75748301    -0.40000
H319        H  0.74182229  0.19492149  0.79940432     0.12800
H320        H  0.81073999  0.20644664  0.81600710     0.12400
H321        H  0.87861304  0.34016575  0.79520912     0.11900
H322        H  0.80989907  0.32858915  0.77905247     0.12100
H323        H  0.92270980  0.31560925  0.81189734     0.14800
H324        H  0.87793679  0.21975803  0.82526645     0.13600
H325        H  0.69776373  0.22978069  0.78199272     0.11300
H326        H  0.76538819  0.28855387  0.75089245     0.13300
C327        C  0.13512417  0.39813399  0.79571188     0.19400
C328        C  0.17897190  0.42614822  0.80285006    -0.18700
C329        C  0.20762123  0.46350724  0.79198507    -0.11000
C330        C  0.19302478  0.47322320  0.77352686     0.21600
C331        C  0.14939875  0.44471696  0.76628508    -0.20300
C332        C  0.12093785  0.40754989  0.77709129    -0.11200
C333        C  0.22183511  0.51159539  0.76088373    -0.15300
C334        C  0.26650424  0.53471073  0.76253720    -0.29200
C335        C  0.10449768  0.35947768  0.80783985    -0.03400
C336        C  0.06062319  0.34532610  0.80781913    -0.40000
H337        H  0.19081347  0.41957233  0.81707605     0.12800
H338        H  0.24076595  0.48467767  0.79829006     0.12400
H339        H  0.13737993  0.45086597  0.75198782     0.11900
H340        H  0.08795742  0.38594896  0.77063491     0.12100
H341        H  0.20558616  0.51930229  0.74855462     0.14800
H342        H  0.28420733  0.52955002  0.77502115     0.13600
H343        H  0.11824435  0.34376561  0.81739571     0.11300
H344        H  0.04787615  0.36326469  0.79926433     0.13300
C345        C  0.78704056  0.25109058  0.70103697     0.19400
C346        C  0.78941149  0.21297635  0.69605865    -0.18700
C347        C  0.82719145  0.21588426  0.68697520    -0.11000
C348        C  0.86386737  0.25720971  0.68295000     0.21600
C349        C  0.86153411  0.29536357  0.68801333    -0.20300
C350        C  0.82343593  0.29240796  0.69680628    -0.11200
C351        C  0.90624744  0.26178257  0.67519353    -0.15300
C352        C  0.90879795  0.23042154  0.66375369    -0.29200
C353        C  0.74814704  0.24681975  0.71236539    -0.03400
C354        C  0.73339802  0.27599847  0.71153281    -0.40000
H355        H  0.76214150  0.18080459  0.69950145     0.12800
H356        H  0.82819325  0.18580250  0.68391320     0.12400
H357        H  0.88957770  0.32763066  0.68542122     0.11900
H358        H  0.82328481  0.32250585  0.70102005     0.12100
H359        H  0.93659721  0.29236059  0.67910793     0.14800
H360        H  0.87863723  0.20091043  0.65858402     0.13600
H361        H  0.73074818  0.21827750  0.72182825     0.11300
H362        H  0.74710047  0.30230374  0.70068629     0.13300
C363        C  0.11857270  0.37454028  0.69079035     0.19400
C364        C  0.12276179  0.41632135  0.69383632    -0.18700
C365        C  0.16166211  0.45116199  0.70257682    -0.11000
C366        C  0.19734381  0.44493584  0.70860630     0.21600
C367        C  0.19296414  0.40298083  0.70595708    -0.20300
C368        C  0.15407423  0.36809235  0.69700608    -0.11200
C369        C  0.23802058  0.48114460  0.71883425    -0.15300
C370        C  0.25259665  0.52354809  0.71472993    -0.29200
C371        C  0.07599603  0.33836771  0.68188933    -0.03400
C372        C  0.07247180  0.30283635  0.67166690    -0.40000
H373        H  0.09571884  0.42202183  0.68948041     0.12800
H374        H  0.16318273  0.48263602  0.70510224     0.12400
H375        H  0.21966266  0.39720601  0.71084802     0.11900
H376        H  0.15157291  0.33602173  0.69548443     0.12100
H377        H  0.25587109  0.47290945  0.73014956     0.14800
H378        H  0.23785728  0.53162078  0.70191420     0.13600
H379        H  0.04679161  0.34229766  0.68293626     0.11300
H380        H  0.10178644  0.29970261  0.66925149     0.13300
C381        C  0.80499821  0.74053537  0.87827995     0.19400
C382        C  0.84175113  0.74000363  0.88740516    -0.18700
C383        C  0.86978027  0.77294731  0.90166482    -0.11000
C384        C  0.86173812  0.80748039  0.90736077     0.21600
C385        C  0.82576191  0.80886679  0.89789775    -0.20300
C386        C  0.79743701  0.77565780  0.88363455    -0.11200
C387        C  0.89153313  0.84304413  0.92250158    -0.15300
C388        C  0.91291179  0.83540260  0.93791020    -0.29200
C389        C  0.77570185  0.70329530  0.86368156    -0.03400
C390        C  0.73986583  0.69926218  0.85320609    -0.40000
H391        H  0.84891163  0.71384741  0.88349213     0.12800
H392        H  0.89817428  0.77156752  0.90794421     0.12400
H393        H  0.81916460  0.83539875  0.90178433     0.11900
H394        H  0.76975401  0.77779318  0.87708190     0.12100
H395        H  0.89630010  0.87596881  0.92077692     0.14800
H396        H  0.90646872  0.80200100  0.94001034     0.13600
H397        H  0.78403058  0.67724400  0.86166139     0.11300
H398        H  0.73040179  0.72448677  0.85463163     0.13300
C399        C  0.21264324  0.96257486  0.87683901     0.19400
C400        C  0.19764287  0.99270542  0.88056694    -0.18700
C401        C  0.16843511  0.98629992  0.89644393    -0.11000
C402        C  0.15390557  0.94955219  0.90896172     0.21600
C403        C  0.17034728  0.92044851  0.90564827    -0.20300
C404        C  0.19939985  0.92683389  0.88982190    -0.11200
C405        C  0.12229493  0.94025816  0.92579473    -0.15300
C406        C  0.09638009  0.95874927  0.92788984    -0.29200
C407        C  0.24245306  0.96917362  0.85953160    -0.03400
C408        C  0.24170277  0.93489017  0.84940244    -0.40000
H409        H  0.20805938  0.02090961  0.87098938     0.12800
H410        H  0.15786181  0.01042822  0.89884977     0.12400
H411        H  0.16042008  0.89237379  0.91527097     0.11900
H412        H  0.21174239  0.90391461  0.88794367     0.12100
H413        H  0.11916559  0.91572471  0.93662136     0.14800
H414        H  0.09777842  0.98255585  0.91711746     0.13600
H415        H  0.26404793  0.00247475  0.85458276     0.11300
H416        H  0.21785663  0.90150645  0.85343441     0.13300
C417        C  0.99075913  0.08697918  0.89887049     0.19400
C418        C  0.02432182  0.11007663  0.88485003    -0.18700
C419        C  0.02132806  0.13991382  0.87170175    -0.11000
C420        C  0.98416395  0.14627628  0.87217342     0.21600
C421        C  0.94984737  0.12149211  0.88556307    -0.20300
C422        C  0.95319328  0.09247104  0.89884040    -0.11200
C423        C  0.97859232  0.17723025  0.85879738    -0.15300
C424        C  0.01194502  0.21312502  0.85039609    -0.29200
C425        C  0.99511349  0.05793508  0.91390709    -0.03400
C426        C  0.98518058  0.05980400  0.93362519    -0.40000
H427        H  0.05332382  0.10589074  0.88446354     0.12800
H428        H  0.04779221  0.15752745  0.86115501     0.12400
H429        H  0.92051868  0.12514592  0.88601721     0.11900
H430        H  0.92632789  0.07426924  0.90915307     0.12100
H431        H  0.94476283  0.17111400  0.85670467     0.14800
H432        H  0.04624135  0.22100984  0.85273746     0.13600
H433        H  0.00806936  0.03656597  0.90904862     0.11300
H434        H  0.97631832  0.08440416  0.93850947     0.13300
C435        C  0.75916356  0.72254495  0.58621385     0.19400
C436        C  0.79780785  0.76323552  0.58993655    -0.18700
C437        C  0.82261006  0.78803381  0.57357117    -0.11000
C438        C  0.80840851  0.77295162  0.55318951     0.21600
C439        C  0.76936176  0.73255215  0.54951774    -0.20300
C440        C  0.74525079  0.70724329  0.56587078    -0.11200
C441        C  0.83116333  0.80070734  0.53561169    -0.15300
C442        C  0.87540744  0.82792974  0.53540191    -0.29200
C443        C  0.73249718  0.69728260  0.60361898    -0.03400
C444        C  0.71540404  0.65348103  0.60427563    -0.40000
H445        H  0.80876716  0.77579419  0.60551914     0.12800
H446        H  0.85187469  0.81969493  0.57686893     0.12400
H447        H  0.75735872  0.72071670  0.53395108     0.11900
H448        H  0.71498498  0.67636156  0.56263031     0.12100
H449        H  0.81052764  0.79902662  0.52251878     0.14800
H450        H  0.89656048  0.82764474  0.54779641     0.13600
H451        H  0.72850714  0.71521178  0.61651001     0.11300
H452        H  0.72314879  0.63622151  0.59236796     0.13300
C453        C  0.96232000  0.11801217  0.59573652     0.19400
C454        C  0.92487798  0.09335578  0.58274531    -0.18700
C455        C  0.92480639  0.06457969  0.56739911    -0.11000
C456        C  0.96258951  0.05984750  0.56446769     0.21600
C457        C  0.99999212  0.08438201  0.57748091    -0.20300
C458        C  0.00003575  0.11309359  0.59287352    -0.11200
C459        C  0.96392866  0.02865390  0.54870626    -0.15300
C460        C  0.93403154  0.00978887  0.53302990    -0.29200
C461        C  0.96002162  0.14788589  0.61195694    -0.03400
C462        C  0.99427966  0.17535322  0.62457847    -0.40000
H463        H  0.89522566  0.09608775  0.58456146     0.12800
H464        H  0.89461311  0.04566804  0.55826977     0.12400
H465        H  0.02944206  0.08125583  0.57577203     0.11900
H466        H  0.02972337  0.13078543  0.60243475     0.12100
H467        H  0.99058006  0.02080305  0.55013925     0.14800
H468        H  0.90764165  0.01768751  0.53099226     0.13600
H469        H  0.92877402  0.14800365  0.61321328     0.11300
H470        H  0.02630149  0.17711693  0.62348251     0.13300
C471        C  0.18231493  0.94026488  0.59630190     0.19400
C472        C  0.19257602  0.97124970  0.58101888    -0.18700
C473        C  0.16001724  0.96773814  0.56701226    -0.11000
C474        C  0.11589794  0.93329614  0.56800328     0.21600
C475        C  0.10506407  0.90269378  0.58358568    -0.20300
C476        C  0.13807776  0.90579021  0.59750482    -0.11200
C477        C  0.08126686  0.93012354  0.55306055    -0.15300
C478        C  0.09082348  0.93961891  0.53322444    -0.29200
C479        C  0.21867877  0.94713193  0.61106744    -0.03400
C480        C  0.22066900  0.91528819  0.62163634    -0.40000
H481        H  0.22615331  0.99845971  0.57987162     0.12800
H482        H  0.16931152  0.99261519  0.55559603     0.12400
H483        H  0.07118114  0.87617027  0.58484206     0.11900
H484        H  0.12874494  0.88189843  0.60938469     0.12100
H485        H  0.04791599  0.91955366  0.55830306     0.14800
H486        H  0.12332558  0.94671196  0.52798528     0.13600
H487        H  0.24683175  0.98038313  0.61235547     0.11300
H488        H  0.19416776  0.88132978  0.61985140     0.13300
C489        C  0.14316876  0.13188909  0.41643545     0.19400
C490        C  0.18982859  0.15400387  0.41657678    -0.18700
C491        C  0.21349268  0.18737184  0.40291770    -0.11000
C492        C  0.19106569  0.19937391  0.38851803     0.21600
C493        C  0.14450223  0.17873520  0.38886174    -0.20300
C494        C  0.12065634  0.14515257  0.40258681    -0.11200
C495        C  0.21565469  0.23270459  0.37287745    -0.15300
C496        C  0.25377525  0.23768974  0.36524855    -0.29200
C497        C  0.12029908  0.09538937  0.43097155    -0.03400
C498        C  0.07591516  0.06930543  0.43211843    -0.40000
H499        H  0.20823047  0.14517784  0.42723220     0.12800
H500        H  0.24943712  0.20373077  0.40372579     0.12400
H501        H  0.12646879  0.18783649  0.37812857     0.11900
H502        H  0.08484347  0.12977741  0.40205437     0.12100
H503        H  0.20097528  0.25143866  0.36671975     0.14800
H504        H  0.26657942  0.21659872  0.37036928     0.13600
H505        H  0.14160232  0.08925168  0.44118957     0.11300
H506        H  0.05332483  0.07401867  0.42221073     0.13300
C507        C  0.80652637  0.97220277  0.41923826     0.19400
C508        C  0.76115854  0.95610065  0.42255805    -0.18700
C509        C  0.73446880  0.96222849  0.40822611    -0.11000
C510        C  0.75264171  0.98509814  0.39022655     0.21600
C511        C  0.79837583  0.00267512  0.38720327    -0.20300
C512        C  0.82509031  0.99603346  0.40147500    -0.11200
C513        C  0.72451666  0.99157608  0.37472327    -0.15300
C514        C  0.68172718  0.96094017  0.37089130    -0.29200
C515        C  0.83311442  0.96443314  0.43505915    -0.03400
C516        C  0.87086169  0.96334638  0.43138919    -0.40000
H517        H  0.74614458  0.93832442  0.43626682     0.12800
H518        H  0.69970049  0.94954566  0.41143301     0.12400
H519        H  0.81332308  0.02107704  0.37363810     0.11900
H520        H  0.86020391  0.01013029  0.39870294     0.12100
H521        H  0.73970932  0.02108622  0.36576593     0.14800
H522        H  0.66772323  0.92997300  0.37872449     0.13600
H523        H  0.81947549  0.95689996  0.45030084     0.11300
H524        H  0.88412037  0.96862737  0.41608657     0.13300
C525        C  0.98717490  0.75810293  0.37785727     0.19400
C526        C  0.02504714  0.79952867  0.38179463    -0.18700
C527        C  0.02405432  0.83033466  0.39558993    -0.11000
C528        C  0.98503580  0.82054137  0.40601293     0.21600
C529        C  0.94680625  0.77956135  0.40179899    -0.20300
C530        C  0.94783127  0.74851371  0.38801643    -0.11200
C531        C  0.98325955  0.85281403  0.42095430    -0.15300
C532        C  0.01913596  0.88219789  0.43226031    -0.29200
C533        C  0.99139524  0.72608501  0.36365291    -0.03400
C534        C  0.95776094  0.68665528  0.35664715    -0.40000
H535        H  0.05579737  0.80818498  0.37416559     0.12800
H536        H  0.05383845  0.86202508  0.39783591     0.12400
H537        H  0.91621055  0.77121084  0.40949228     0.11900
H538        H  0.91792739  0.71704755  0.38568598     0.12100
H539        H  0.95146502  0.85128122  0.42321619     0.14800
H540        H  0.05010658  0.88158803  0.43101882     0.13600
H541        H  0.02479746  0.73582743  0.35872187     0.11300
H542        H  0.92374490  0.67607654  0.36067179     0.13300
C543        C  0.77315876  0.96585124  0.09161239     0.19400
C544        C  0.81382851  0.96770948  0.09619479    -0.18700
C545        C  0.83955662  0.96478685  0.08046478    -0.11000
C546        C  0.82541303  0.96100332  0.05982732     0.21600
C547        C  0.78483735  0.95937287  0.05528372    -0.20300
C548        C  0.75868487  0.96125589  0.07100281    -0.11200
C549        C  0.85422230  0.96355301  0.04267765    -0.15300
C550        C  0.88340465  0.94855975  0.04334105    -0.29200
C551        C  0.74697679  0.97038519  0.10839168    -0.03400
C552        C  0.70249766  0.94574649  0.10845669    -0.40000
H553        H  0.82572034  0.97153779  0.11197008     0.12800
H554        H  0.87123697  0.96729024  0.08442358     0.12400
H555        H  0.77361353  0.95718391  0.03948617     0.11900
H556        H  0.72785084  0.96057182  0.06700379     0.12100
H557        H  0.85105149  0.97847245  0.02875807     0.14800
H558        H  0.88468402  0.93034578  0.05636805     0.13600
H559        H  0.76463491  0.99236871  0.12145376     0.11300
H560        H  0.68530973  0.92048653  0.09646598     0.13300
C561        C  0.99650989  0.73113704  0.08687364     0.19400
C562        C  0.02228305  0.77720167  0.08715788    -0.18700
C563        C  0.01934901  0.80099248  0.07081609    -0.11000
C564        C  0.99103539  0.77895735  0.05371877     0.21600
C565        C  0.96655034  0.73281036  0.05310711    -0.20300
C566        C  0.96892785  0.70907817  0.06958604    -0.11200
C567        C  0.98774985  0.80324533  0.03602797    -0.15300
C568        C  0.99106529  0.84313584  0.03829084    -0.29200
C569        C  0.99962119  0.70662971  0.10450970    -0.03400
C570        C  0.96418915  0.66975297  0.11072133    -0.40000
H571        H  0.04430594  0.79481472  0.10015957     0.12800
H572        H  0.03981697  0.83651700  0.07143139     0.12400
H573        H  0.94517499  0.71512095  0.03993615     0.11900
H574        H  0.94971022  0.67345845  0.06863295     0.12100
H575        H  0.98120952  0.78734112  0.02087009     0.14800
H576        H  0.99487181  0.85790472  0.05355600     0.13600
H577        H  0.03106332  0.72020565  0.11305986     0.11300
H578        H  0.93195905  0.65820877  0.10317346     0.13300
C579        C  0.09186018  0.60440117  0.18058802     0.19400
C580        C  0.13220104  0.64438897  0.18274000    -0.18700
C581        C  0.16924617  0.64594092  0.19258500    -0.11000
C582        C  0.16666655  0.60746855  0.20044735     0.21600
C583        C  0.12662601  0.56755856  0.19780264    -0.20300
C584        C  0.08969112  0.56608292  0.18809772    -0.11200
C585        C  0.20326100  0.60738203  0.21269388    -0.15300
C586        C  0.24396556  0.64240044  0.21601394    -0.29200
C587        C  0.05046875  0.60130396  0.17186911    -0.03400
C588        C  0.04908024  0.63053465  0.15916297    -0.40000
H589        H  0.13491505  0.67481257  0.17756617     0.12800
H590        H  0.19908215  0.67758265  0.19446887     0.12400
H591        H  0.12352172  0.53742642  0.20370003     0.11900
H592        H  0.05901933  0.53485659  0.18669942     0.12100
H593        H  0.19595658  0.57690224  0.22000055     0.14800
H594        H  0.25462867  0.67285626  0.20816546     0.13600
H595        H  0.01942904  0.57250642  0.17575244     0.11300
H596        H  0.07952875  0.65834387  0.15409174     0.13300
C597        C  0.19385030  0.63499100  0.29149816     0.19400
C598        C  0.19470748  0.66747399  0.30491163    -0.18700
C599        C  0.15511001  0.66248546  0.31301731    -0.11000
C600        C  0.11418041  0.62444035  0.30801817     0.21600
C601        C  0.11405782  0.59120944  0.29543978    -0.20300
C602        C  0.15326628  0.59638908  0.28725250    -0.11200
C603        C  0.07048896  0.61724174  0.31513637    -0.15300
C604        C  0.06246719  0.64820747  0.32356104    -0.29200
C605        C  0.23494642  0.64165368  0.28152356    -0.03400
C606        C  0.23373965  0.62962543  0.26168448    -0.40000
H607        H  0.22579447  0.69723720  0.30861267     0.12800
H608        H  0.15682646  0.68839717  0.32304666     0.12400
H609        H  0.08323380  0.56127565  0.29155964     0.11900
H610        H  0.15177255  0.57017931  0.27746054     0.12100
H611        H  0.04250619  0.58427557  0.31231974     0.14800
H612        H  0.08919824  0.68156367  0.32671757     0.13600
H613        H  0.26632219  0.65844284  0.29012909     0.11300
H614        H  0.20260444  0.61707790  0.25306336     0.13300
C615        C  0.51105369  0.82974356  0.17575979     0.19400
C616        C  0.48583231  0.83523819  0.19103976    -0.18700
C617        C  0.45249333  0.79898960  0.20071004    -0.11000
C618        C  0.44368525  0.75612862  0.19540167     0.21600
C619        C  0.46807308  0.75032989  0.17980825    -0.20300
C620        C  0.50162463  0.78668898  0.17013271    -0.11200
C621        C  0.40826602  0.71688828  0.20531998    -0.15300
C622        C  0.39478258  0.71845118  0.22442548    -0.29200
C623        C  0.54750901  0.87012367  0.16689239    -0.03400
C624        C  0.57387629  0.87059208  0.15178093    -0.40000
H625        H  0.49201958  0.86786778  0.19560331     0.12800
H626        H  0.43333321  0.80475493  0.21210689     0.12400
H627        H  0.46154561  0.71756356  0.17529141     0.11900
H628        H  0.52005158  0.78054681  0.15852674     0.12100
H629        H  0.39414837  0.68551688  0.19687211     0.14800
H630        H  0.41166700  0.74883262  0.23362544     0.13600
H631        H  0.55362713  0.90144731  0.17364706     0.11300
H632        H  0.56875702  0.84031863  0.14435713     0.13300
C633        C  0.41917310  0.74572859  0.30212138     0.19400
C634        C  0.41393130  0.77737154  0.31350252    -0.18700
C635        C  0.45028730  0.81173525  0.32424953    -0.11000
C636        C  0.49215750  0.81425013  0.32413631     0.21600
C637        C  0.49646152  0.78072921  0.31404212    -0.20300
C638        C  0.46043727  0.74697810  0.30295243    -0.11200
C639        C  0.53232230  0.85241527  0.33354516    -0.15300
C640        C  0.54041909  0.89390655  0.33138078    -0.29200
C641        C  0.38215161  0.71316883  0.28858964    -0.03400
C642        C  0.38984111  0.70351931  0.26955697    -0.40000
H643        H  0.38224288  0.77663229  0.31330092     0.12800
H644        H  0.44587612  0.83665992  0.33236942     0.12400
H645        H  0.52828432  0.78175671  0.31397758     0.11900
H646        H  0.46503823  0.72227895  0.29472742     0.12100
H647        H  0.55797435  0.84672158  0.34017675     0.14800
H648        H  0.51630848  0.89966025  0.32316120     0.13600
H649        H  0.34823291  0.70059778  0.29345702     0.11300
H650        H  0.42372628  0.71968004  0.26423420     0.13300
C651        C  0.29525186  0.49658541  0.28171075     0.19400
C652        C  0.28295804  0.48340891  0.30188153    -0.18700
C653        C  0.28512183  0.44726337  0.30953623    -0.11000
C654        C  0.29927158  0.42342766  0.29700283     0.21600
C655        C  0.31047425  0.43598993  0.27672396    -0.20300
C656        C  0.30793938  0.47166228  0.26905245    -0.11200
C657        C  0.30562997  0.38715984  0.30466285    -0.15300
C658        C  0.28387499  0.36175704  0.32044842    -0.29200
C659        C  0.29381419  0.53571782  0.27402444    -0.03400
C660        C  0.31929274  0.55925656  0.25864425    -0.40000
H661        H  0.27261892  0.50172186  0.31186894     0.12800
H662        H  0.27701305  0.43897493  0.32537185     0.12400
H663        H  0.32120155  0.41801609  0.26671656     0.11900
H664        H  0.31563529  0.47921707  0.25312595     0.12100
H665        H  0.32906579  0.38062725  0.29648194     0.14800
H666        H  0.25855694  0.36596638  0.32817279     0.13600
H667        H  0.27097458  0.54490466  0.28090731     0.11300
H668        H  0.34302226  0.55105593  0.25205974     0.13300
C669        C  0.82861241  0.49504514  0.29981276     0.19400
C670        C  0.78396872  0.46901758  0.30511898    -0.18700
C671        C  0.75435259  0.43231380  0.29270196    -0.11000
C672        C  0.76873797  0.42119222  0.27447731     0.21600
C673        C  0.81326699  0.44758048  0.26918270    -0.20300
C674        C  0.84265693  0.48401674  0.28152296    -0.11200
C675        C  0.73918271  0.38312271  0.26028177    -0.15300
C676        C  0.69438842  0.36091458  0.26052238    -0.29200
C677        C  0.85993036  0.53435452  0.31296741    -0.03400
C678        C  0.90373387  0.54786154  0.31401172    -0.40000
H679        H  0.77210132  0.47681839  0.31901988     0.12800
H680        H  0.72056548  0.41281149  0.29761227     0.12400
H681        H  0.82534421  0.44038437  0.25518125     0.11900
H682        H  0.87623715  0.50405593  0.27638031     0.12100
H683        H  0.75533677  0.37391478  0.24854753     0.14800
H684        H  0.67728393  0.36785204  0.27258485     0.13600
H685        H  0.84699822  0.55238631  0.32157728     0.11300
H686        H  0.91553229  0.52791716  0.30621299     0.13300
C687        C  0.84206203  0.49433627  0.18358611     0.19400
C688        C  0.83938714  0.45606935  0.19140349    -0.18700
C689        C  0.80144806  0.42579622  0.20134963    -0.11000
C690        C  0.76545242  0.43341682  0.20385670     0.21600
C691        C  0.76848953  0.47224389  0.19654511    -0.20300
C692        C  0.80631822  0.50235018  0.18632132    -0.11200
C693        C  0.72523072  0.40173933  0.21461009    -0.15300
C694        C  0.71013273  0.35820232  0.21306597    -0.29200
C695        C  0.88372858  0.52635303  0.17387543    -0.03400
C696        C  0.88537624  0.55395626  0.15943580    -0.40000
H697        H  0.86680157  0.44958810  0.18981490     0.12800
H698        H  0.80071288  0.39685747  0.20743902     0.12400
H699        H  0.74144939  0.47911011  0.19863291     0.11900
H700        H  0.80792992  0.53227424  0.18107418     0.12100
H701        H  0.70729805  0.41416347  0.22361996     0.14800
H702        H  0.72494530  0.34532741  0.20230978     0.13600
H703        H  0.91407289  0.52646694  0.17855584     0.11300
H704        H  0.85500546  0.55243919  0.15372099     0.13300
C705        C  0.50770637  0.30444965  0.27561677     0.19400
C706        C  0.50160696  0.30129540  0.29685101    -0.18700
C707        C  0.46586053  0.30335291  0.30548172    -0.11000
C708        C  0.43584679  0.30926406  0.29299391     0.21600
C709        C  0.44271983  0.31373822  0.27183072    -0.20300
C710        C  0.47810974  0.31108440  0.26316414    -0.11200
C711        C  0.39808138  0.31250580  0.30163510    -0.15300
C712        C  0.37697615  0.29132067  0.31845662    -0.29200
C713        C  0.54640418  0.30286776  0.26703606    -0.03400
C714        C  0.54552437  0.28656736  0.24806238    -0.40000
H715        H  0.52448048  0.29701896  0.30677282     0.12800
H716        H  0.46239151  0.30124973  0.32194628     0.12400
H717        H  0.42048765  0.31908859  0.26196171     0.11900
H718        H  0.48278027  0.31524468  0.24681883     0.12100
H719        H  0.38596048  0.33126450  0.29328971     0.14800
H720        H  0.38677110  0.26999626  0.32610360     0.13600
H721        H  0.57622009  0.31554144  0.27671320     0.11300
H722        H  0.51515729  0.27307650  0.23872875     0.13300
C723        C  0.62810851  0.17175289  0.28521402     0.19400
C724        C  0.66304116  0.17513923  0.29777818    -0.18700
C725        C  0.65885135  0.13843070  0.30803845    -0.11000
C726        C  0.61920496  0.09763168  0.30607604     0.21600
C727        C  0.58393521  0.09486848  0.29396562    -0.20300
C728        C  0.58823576  0.13133606  0.28367420    -0.11200
C729        C  0.61236765  0.05681814  0.31605580    -0.15300
C730        C  0.64326531  0.05220607  0.32694040    -0.29200
C731        C  0.63394494  0.21057741  0.27379413    -0.03400
C732        C  0.61461486  0.20627491  0.25522085    -0.40000
H733        H  0.69398160  0.20606668  0.29933407     0.12800
H734        H  0.68673261  0.14239401  0.31735279     0.12400
H735        H  0.55279963  0.06413703  0.29231922     0.11900
H736        H  0.56011400  0.12783312  0.27464347     0.12100
H737        H  0.57942123  0.02823642  0.31392610     0.14800
H738        H  0.67652063  0.07970256  0.32965500     0.13600
H739        H  0.65735876  0.24333107  0.27995758     0.11300
H740        H  0.59465656  0.17373482  0.24806326     0.13300
C741        C  0.64567450  0.14974769  0.20068704     0.19400
C742        C  0.68184826  0.14196489  0.20037810    -0.18700
C743        C  0.67936042  0.10632610  0.18885892    -0.11000
C744        C  0.64014984  0.07719450  0.17774643     0.21600
C745        C  0.60388467  0.08478661  0.17821889    -0.20300
C746        C  0.60663300  0.12076693  0.18941501    -0.11200
C747        C  0.63421940  0.03643990  0.16707863    -0.15300
C748        C  0.66728272  0.03182378  0.15875850    -0.29200
C749        C  0.64857625  0.18675118  0.21371643    -0.03400
C750        C  0.62652960  0.20832387  0.20899645    -0.40000
H751        H  0.71206072  0.16343702  0.20916100     0.12800
H752        H  0.70749350  0.10075925  0.18927749     0.12400
H753        H  0.57304780  0.06243638  0.17005983     0.11900
H754        H  0.57764735  0.12495027  0.18975434     0.12100
H755        H  0.60037907  0.00906163  0.16555705     0.14800
H756        H  0.70081052  0.05964909  0.15855226     0.13600
H757        H  0.67067204  0.19756309  0.22719262     0.11300
H758        H  0.60831586  0.20102338  0.19443203     0.13300
C759        C  0.20094474  0.18766485  0.07338827     0.19400
C760        C  0.19437857  0.14584803  0.06766005    -0.18700
C761        C  0.15910035  0.11761782  0.05430455    -0.11000
C762        C  0.12943331  0.13068200  0.04629141     0.21600
C763        C  0.13741118  0.17336166  0.05124410    -0.20300
C764        C  0.17269249  0.20156415  0.06455726    -0.11200
C765        C  0.09009840  0.10126572  0.03272219    -0.15300
C766        C  0.07273646  0.05724683  0.03100612    -0.29200
C767        C  0.23750291  0.21597712  0.08846713    -0.03400
C768        C  0.23604165  0.24704809  0.10050456    -0.40000
H769        H  0.21619845  0.13465036  0.07382156     0.12800
H770        H  0.15562615  0.08584156  0.05032460     0.12400
H771        H  0.11589190  0.18482078  0.04497503     0.11900
H772        H  0.17775086  0.23428239  0.06775153     0.12100
H773        H  0.07362429  0.11623486  0.02452745     0.14800
H774        H  0.08740856  0.04126465  0.03967282     0.13600
H775        H  0.26530832  0.20994152  0.09025531     0.11300
H776        H  0.20736831  0.25180359  0.09942608     0.13300
C777        C  0.51244951  0.31786420  0.18803785     0.19400
C778        C  0.48297383  0.28130659  0.17543949    -0.18700
C779        C  0.45077342  0.28335473  0.16281986    -0.11000
C780        C  0.44763031  0.32209130  0.16255695     0.21600
C781        C  0.47813271  0.35874668  0.17467270    -0.20300
C782        C  0.50975325  0.35654469  0.18733514    -0.11200
C783        C  0.41168078  0.32580797  0.15144998    -0.15300
C784        C  0.37677714  0.29337699  0.14065800    -0.29200
C785        C  0.54411318  0.31635480  0.20325924    -0.03400
C786        C  0.56016208  0.28828088  0.20197130    -0.40000
H787        H  0.48350607  0.25060758  0.17587620     0.12800
H788        H  0.42795698  0.25429639  0.15380492     0.12400
H789        H  0.47664854  0.38904293  0.17487756     0.11900
H790        H  0.53181517  0.38510641  0.19690800     0.12100
H791        H  0.41271022  0.35730817  0.15344876     0.14800
H792        H  0.37456228  0.26172875  0.13749737     0.13600
H793        H  0.55554181  0.34030711  0.21603193     0.11300
H794        H  0.55327860  0.26728645  0.18833604     0.13300
C795        C  0.30648187  0.49679257  0.19896447     0.19400
C796        C  0.27137010  0.45359507  0.19562338    -0.18700
C797        C  0.27650324  0.42364108  0.18296618    -0.11000
C798        C  0.31722853  0.43616374  0.17358635     0.21600
C799        C  0.35264840  0.47912161  0.17719945    -0.20300
C800        C  0.34732849  0.50931010  0.18964904    -0.11200
C801        C  0.32445373  0.40416365  0.16119228    -0.15300
C802        C  0.29183350  0.37095042  0.14985246    -0.29200
C803        C  0.30018499  0.52682957  0.21328264    -0.03400
C804        C  0.32392913  0.57102486  0.21274897    -0.40000
H805        H  0.23989270  0.44289275  0.20294536     0.12800
H806        H  0.24899632  0.39033439  0.18107602     0.12400
H807        H  0.38457937  0.48926236  0.17044162     0.11900
H808        H  0.37561074  0.54187119  0.19241780     0.12100
H809        H  0.35779772  0.40846104  0.16123370     0.14800
H810        H  0.25927201  0.36832006  0.14851561     0.13600
H811        H  0.27423716  0.51192042  0.22445357     0.11300
H812        H  0.34644435  0.58661457  0.20033652     0.13300
loop_ 
_geom_bond_atom_site_label_1 
_geom_bond_atom_site_label_2 
_geom_bond_distance 
_geom_bond_site_symmetry_2 
_ccdc_geom_bond_type 
C1            N2   1.358       .  A
C1            N6   1.367       .  A
C1          C768   1.480       .  S
N2            C3   1.354       .  A
C3            N4   1.354       .  A
C3          C802   1.477       .  S
N4            C5   1.360       .  A
C5            N6   1.365       .  A
C5          C784   1.487       .  S
C7            H8   1.109       .  S
C7           C13   1.547       .  S
C7           C12   1.536       .  S
C7           C11   1.546       .  S
C9           H10   1.112       .  S
C9           C15   1.540       .  S
C9           C14   1.533       .  S
C9           C16   1.528       .  S
C11          C14   1.377       .  D
C11         C714   1.487       .  S
C12          C15   1.381       .  D
C12         C676   1.497       .  S
C13          C16   1.373       .  D
C13         C732   1.482       .  S
C14         C786   1.491       .  S
C15         C694   1.476       .  S
C16         C750   1.489       .  S
C17          H18   1.110       .  S
C17          C23   1.540       .  S
C17          C22   1.543       .  S
C17          C21   1.542       .  S
C19          H20   1.110       .  S
C19          C25   1.528       .  S
C19          C24   1.535       .  S
C19          C26   1.529       .  S
C21          C24   1.374       .  D
C21         C642   1.483       .  S
C22          C25   1.375       .  D
C22         C660   1.480       .  S
C23          C26   1.374       .  D
C23         C606   1.486       .  S
C24         C622   1.486       .  S
C25         C804   1.486       .  S
C26         C586   1.480       .  S
C27          N28   1.357       .  A
C27          N32   1.362   1_655  A
C27         C570   1.474       .  S
N28          C29   1.355       .  A
C29          N30   1.357       .  A
C29         C696   1.476       .  S
N30          C31   1.359   1_655  A
C31          N32   1.360       .  A
C31         C588   1.480       .  S
C33          N34   1.365       .  A
C33          N38   1.358       .  A
C33         C552   1.474       .  S
N34          C35   1.363       .  A
C35          N36   1.358       .  A
C35         C748   1.484   1_565  S
N36          C37   1.357       .  A
C37          N38   1.355       .  A
C37         C624   1.478       .  S
C39          N40   1.365   1_655  A
C39          N44   1.370       .  A
C39         C534   1.491       .  S
N40          C41   1.356       .  A
C41          N42   1.354   1_455  A
C41         C604   1.483       .  S
N42          C43   1.353       .  A
C43          N44   1.366       .  A
C43         C678   1.483       .  S
C45          N46   1.359       .  A
C45          N50   1.365   1_565  A
C45         C514   1.479       .  S
N46          C47   1.357       .  A
C47          N48   1.354       .  A
C47         C640   1.476       .  S
N48          C49   1.359   1_565  A
C49          N50   1.363       .  A
C49         C730   1.485       .  S
C51          N52   1.358       .  A
C51          N56   1.363       .  A
C51         C496   1.476       .  S
N52          C53   1.354       .  A
C53          N54   1.355       .  A
C53         C712   1.476       .  S
N54          C55   1.359       .  A
C55          N56   1.363       .  A
C55         C658   1.481       .  S
O57         Ni63   1.931       .  S
O57          C78   1.272       .  A
O58         Ni81   1.910       .  S
O58          C67   1.268       .  A
O59         Ni63   1.905       .  S
O59         Ni81   1.907   1_455  S
O59         Ni75   1.916   1_455  S
O59          H82   0.967   1_565  S
C60         C442   1.478       .  S
C60          O77   1.276       .  A
C60          O69   1.277       .  A
O61         Ni80   1.936       .  S
O61          C67   1.273       .  A
O62         Ni80   1.907       .  S
O62          C64   1.269       .  A
Ni63         O66   1.929   1_565  S
Ni63         O68   1.910       .  S
C64         C460   1.482   1_565  S
C64          O74   1.276       .  A
O65         Ni81   1.919   1_445  S
O65          C71   1.274       .  A
O66          C71   1.278       .  A
C67         C516   1.484       .  S
O68          C70   1.269       .  A
O69         Ni80   1.924       .  S
C70         C532   1.486       .  S
C70          O76   1.275   1_455  A
C71         C498   1.483       .  S
H72          O73   0.967       .  S
O73         Ni81   1.912       .  S
O73         Ni75   1.914       .  S
O73         Ni80   1.906       .  S
O74         Ni75   1.941       .  S
Ni75         O79   1.923   1_655  S
Ni75         O77   1.919       .  S
O76         Ni81   1.944       .  S
C78         C478   1.481       .  S
C78          O79   1.272       .  A
O83         Ni89   1.936   1_654  S
O83         C104   1.273       .  A
O84        Ni107   1.913   1_655  S
O84          C93   1.269   1_565  A
O85         Ni89   1.908       .  S
O85        Ni107   1.911       .  S
O85        Ni101   1.913   1_456  S
O85         H108   0.966       .  S
C86         C550   1.479       .  S
C86         O103   1.276       .  A
C86          O95   1.276       .  A
O87        Ni106   1.926       .  S
O87          C93   1.270       .  A
O88        Ni106   1.920   1_454  S
O88          C90   1.270       .  A
Ni89         O92   1.926       .  S
Ni89         O94   1.903   1_455  S
C90         C766   1.481       .  S
C90         O100   1.267   1_545  A
O91        Ni107   1.907       .  S
O91          C97   1.271       .  A
O92          C97   1.277       .  A
C93         C426   1.473       .  S
O94          C96   1.269       .  A
O95        Ni106   1.922   1_564  S
C96         C388   1.481       .  S
C96         O102   1.278       .  A
C97         C406   1.475       .  S
H98          O99   0.970       .  S
O99        Ni107   1.911   1_655  S
O99        Ni101   1.909   1_556  S
O99        Ni106   1.917   1_565  S
O100       Ni101   1.919   1_455  S
Ni101       O105   1.901       .  S
Ni101       O103   1.922       .  S
O102       Ni107   1.947   1_655  S
C104        C568   1.475       .  S
C104        O105   1.265       .  A
C109        N110   1.363       .  A
C109        N114   1.357   1_655  A
C109        C462   1.482       .  S
N110        C111   1.363       .  A
C111        N112   1.361       .  A
C111        C352   1.484       .  S
N112        C113   1.360   1_655  A
C113        N114   1.356       .  A
C113        C372   1.478       .  S
C115        N116   1.363   1_455  A
C115        N120   1.368       .  A
C115        C424   1.486       .  S
N116        C117   1.353       .  A
C117        N118   1.353       .  A
C117        C316   1.479       .  S
N118        C119   1.354   1_655  A
C119        N120   1.365       .  A
C119        C336   1.478       .  S
C121        H122   1.109       .  S
C121        C127   1.532       .  S
C121        C126   1.545       .  S
C121        C125   1.532       .  S
C123        H124   1.110       .  S
C123        C129   1.533       .  S
C123        C128   1.543       .  S
C123        C130   1.540       .  S
C125        C128   1.375       .  D
C125        C354   1.489       .  S
C126        C129   1.377       .  D
C126        C246   1.486       .  S
C127        C130   1.373       .  D
C127        C280   1.486       .  S
C128        C318   1.483       .  S
C129        C262   1.486       .  S
C130        C298   1.483       .  S
C131        H132   1.112       .  S
C131        C137   1.542       .  S
C131        C136   1.528       .  S
C131        C135   1.534       .  S
C133        H134   1.112       .  S
C133        C139   1.542       .  S
C133        C138   1.534       .  S
C133        C140   1.530       .  S
C135        C138   1.378       .  D
C135        C228   1.489       .  S
C136        C139   1.379       .  D
C136        C370   1.481       .  S
C137        C140   1.379       .  D
C137        C190   1.483       .  S
C138        C208   1.480       .  S
C139        C334   1.488       .  S
C140        C174   1.486       .  S
C141        N142   1.369       .  A
C141        N146   1.367       .  A
C141        C480   1.491       .  S
N142        C143   1.365       .  A
C143        N144   1.351       .  A
C143        C226   1.478       .  S
N144        C145   1.352       .  A
C145        N146   1.357       .  A
C145        C282   1.483   1_565  S
C147        N148   1.361       .  A
C147        N152   1.357       .  A
C147        C444   1.472       .  S
N148        C149   1.359       .  A
C149        N150   1.359       .  A
C149        C192   1.479       .  S
N150        C151   1.359       .  A
C151        N152   1.356       .  A
C151        C244   1.477       .  S
C153        N154   1.366       .  A
C153        N158   1.367       .  A
C153        C390   1.487       .  S
N154        C155   1.362       .  A
C155        N156   1.350       .  A
C155        C172   1.475       .  S
N156        C157   1.353       .  A
C157        N158   1.359       .  A
C157        C264   1.482       .  S
C159        N160   1.354       .  A
C159        N164   1.361       .  A
C159        C408   1.470       .  S
N160        C161   1.352       .  A
C161        N162   1.359       .  A
C161        C210   1.474       .  S
N162        C163   1.362       .  A
C163        N164   1.361       .  A
C163        C300   1.481   1_565  S
C165        C173   1.492       .  S
C165        C166   1.402       .  A
C165        C170   1.412       .  A
C166        C167   1.396       .  A
C166        H175   1.084       .  S
C167        C168   1.409       .  A
C167        H176   1.082       .  S
C168        C171   1.492       .  S
C168        C169   1.402       .  A
C169        C170   1.403       .  A
C169        H177   1.083       .  S
C170        H178   1.080       .  S
C171        C172   1.344       .  D
C171        H179   1.086       .  S
C172        H180   1.085       .  S
C173        C174   1.343       .  D
C173        H181   1.087       .  S
C174        H182   1.082       .  S
C183        C191   1.485       .  S
C183        C184   1.402       .  A
C183        C188   1.408       .  A
C184        C185   1.396       .  A
C184        H193   1.084       .  S
C185        C186   1.407       .  A
C185        H194   1.082       .  S
C186        C189   1.485       .  S
C186        C187   1.403       .  A
C187        C188   1.401       .  A
C187        H195   1.083       .  S
C188        H196   1.082       .  S
C189        C190   1.344       .  D
C189        H197   1.086       .  S
C190        H198   1.085       .  S
C191        C192   1.346       .  D
C191        H199   1.087       .  S
C192        H200   1.085       .  S
C201        C209   1.485       .  S
C201        C202   1.401       .  A
C201        C206   1.410       .  A
C202        C203   1.396       .  A
C202        H211   1.083       .  S
C203        C204   1.406       .  A
C203        H212   1.083       .  S
C204        C207   1.480       .  S
C204        C205   1.401       .  A
C205        C206   1.399       .  A
C205        H213   1.083       .  S
C206        H214   1.082       .  S
C207        C208   1.343       .  D
C207        H215   1.087       .  S
C208        H216   1.086       .  S
C209        C210   1.343       .  D
C209        H217   1.087       .  S
C210        H218   1.085       .  S
C219        C227   1.491       .  S
C219        C220   1.402       .  A
C219        C224   1.411       .  A
C220        C221   1.395       .  A
C220        H229   1.084       .  S
C221        C222   1.410       .  A
C221        H230   1.081       .  S
C222        C225   1.496       .  S
C222        C223   1.404       .  A
C223        C224   1.405       .  A
C223        H231   1.083       .  S
C224        H232   1.080       .  S
C225        C226   1.344       .  D
C225        H233   1.086       .  S
C226        H234   1.085       .  S
C227        C228   1.346       .  D
C227        H235   1.087       .  S
C228        H236   1.082       .  S
C237        C245   1.485       .  S
C237        C238   1.402       .  A
C237        C242   1.407       .  A
C238        C239   1.399       .  A
C238        H247   1.083       .  S
C239        C240   1.410       .  A
C239        H248   1.080       .  S
C240        C243   1.489       .  S
C240        C241   1.403       .  A
C241        C242   1.396       .  A
C241        H249   1.083       .  S
C242        H250   1.082       .  S
C243        C244   1.346       .  D
C243        H251   1.087       .  S
C244        H252   1.083       .  S
C245        C246   1.344       .  D
C245        H253   1.085       .  S
C246        H254   1.084       .  S
C255        C263   1.486       .  S
C255        C256   1.404       .  A
C255        C260   1.407       .  A
C256        C257   1.396       .  A
C256        H265   1.084       .  S
C257        C258   1.405       .  A
C257        H266   1.082       .  S
C258        C261   1.489       .  S
C258        C259   1.406       .  A
C259        C260   1.403       .  A
C259        H267   1.083       .  S
C260        H268   1.081       .  S
C261        C262   1.348       .  D
C261        H269   1.087       .  S
C262        H270   1.085       .  S
C263        C264   1.350       .  D
C263        H271   1.088       .  S
C264        H272   1.085       .  S
C273        C281   1.487       .  S
C273        C274   1.404       .  A
C273        C278   1.408       .  A
C274        C275   1.396       .  A
C274        H283   1.084       .  S
C275        C276   1.405       .  A
C275        H284   1.082       .  S
C276        C279   1.486       .  S
C276        C277   1.405       .  A
C277        C278   1.404       .  A
C277        H285   1.083       .  S
C278        H286   1.081       .  S
C279        C280   1.347       .  D
C279        H287   1.087       .  S
C280        H288   1.085       .  S
C281        C282   1.350       .  D
C281        H289   1.087       .  S
C282        H290   1.085       .  S
C291        C299   1.489       .  S
C291        C292   1.403       .  A
C291        C296   1.410       .  A
C292        C293   1.395       .  A
C292        H301   1.084       .  S
C293        C294   1.405       .  A
C293        H302   1.082       .  S
C294        C297   1.487       .  S
C294        C295   1.404       .  A
C295        C296   1.403       .  A
C295        H303   1.083       .  S
C296        H304   1.080       .  S
C297        C298   1.344       .  D
C297        H305   1.087       .  S
C298        H306   1.085       .  S
C299        C300   1.347       .  D
C299        H307   1.087   1_545  S
C300        H308   1.084       .  S
C309        C317   1.484       .  S
C309        C310   1.403       .  A
C309        C314   1.404       .  A
C310        C311   1.404       .  A
C310        H319   1.083       .  S
C311        C312   1.411       .  A
C311        H320   1.080       .  S
C312        C315   1.487       .  S
C312        C313   1.403       .  A
C313        C314   1.392       .  A
C313        H321   1.084       .  S
C314        H322   1.083       .  S
C315        C316   1.346       .  D
C315        H323   1.087       .  S
C316        H324   1.083       .  S
C317        C318   1.343       .  D
C317        H325   1.086       .  S
C318        H326   1.086       .  S
C327        C335   1.493       .  S
C327        C328   1.404       .  A
C327        C332   1.409       .  A
C328        C329   1.404       .  A
C328        H337   1.083       .  S
C329        C330   1.411       .  A
C329        H338   1.080       .  S
C330        C333   1.491       .  S
C330        C331   1.403       .  A
C331        C332   1.396       .  A
C331        H339   1.084       .  S
C332        H340   1.082       .  S
C333        C334   1.346       .  D
C333        H341   1.087       .  S
C334        H342   1.083       .  S
C335        C336   1.344       .  D
C335        H343   1.086       .  S
C336        H344   1.086       .  S
C345        C353   1.487       .  S
C345        C346   1.404       .  A
C345        C350   1.406       .  A
C346        C347   1.400       .  A
C346        H355   1.083       .  S
C347        C348   1.407       .  A
C347        H356   1.082       .  S
C348        C351   1.491       .  S
C348        C349   1.406       .  A
C349        C350   1.402       .  A
C349        H357   1.083       .  S
C350        H358   1.082       .  S
C351        C352   1.350       .  D
C351        H359   1.087       .  S
C352        H360   1.085       .  S
C353        C354   1.347       .  D
C353        H361   1.087       .  S
C354        H362   1.085       .  S
C363        C371   1.486       .  S
C363        C364   1.402       .  A
C363        C368   1.409       .  A
C364        C365   1.396       .  A
C364        H373   1.083       .  S
C365        C366   1.407       .  A
C365        H374   1.082       .  S
C366        C369   1.484       .  S
C366        C367   1.402       .  A
C367        C368   1.401       .  A
C367        H375   1.083       .  S
C368        H376   1.082       .  S
C369        C370   1.343       .  D
C369        H377   1.087       .  S
C370        H378   1.086       .  S
C371        C372   1.345       .  D
C371        H379   1.087       .  S
C372        H380   1.085       .  S
C381        C389   1.497       .  S
C381        C382   1.405       .  A
C381        C386   1.412       .  A
C382        C383   1.398       .  A
C382        H391   1.084       .  S
C383        C384   1.408       .  A
C383        H392   1.082       .  S
C384        C387   1.494       .  S
C384        C385   1.404       .  A
C385        C386   1.405       .  A
C385        H393   1.083       .  S
C386        H394   1.080       .  S
C387        C388   1.347       .  D
C387        H395   1.086       .  S
C388        H396   1.086       .  S
C389        C390   1.350       .  D
C389        H397   1.087       .  S
C390        H398   1.083       .  S
C399        C407   1.483       .  S
C399        C400   1.402       .  A
C399        C404   1.407       .  A
C400        C401   1.399       .  A
C400        H409   1.083   1_565  S
C401        C402   1.410       .  A
C401        H410   1.080   1_565  S
C402        C405   1.485       .  S
C402        C403   1.402       .  A
C403        C404   1.394       .  A
C403        H411   1.084       .  S
C404        H412   1.082       .  S
C405        C406   1.345       .  D
C405        H413   1.087       .  S
C406        H414   1.084       .  S
C407        C408   1.342       .  D
C407        H415   1.087   1_565  S
C408        H416   1.086       .  S
C417        C425   1.485       .  S
C417        C418   1.405   1_655  A
C417        C422   1.404       .  A
C418        C419   1.406       .  A
C418        H427   1.083       .  S
C419        C420   1.409   1_455  A
C419        H428   1.082       .  S
C420        C423   1.486       .  S
C420        C421   1.403       .  A
C421        C422   1.394       .  A
C421        H429   1.084       .  S
C422        H430   1.083       .  S
C423        C424   1.350   1_655  D
C423        H431   1.087       .  S
C424        H432   1.085       .  S
C425        C426   1.344       .  D
C425        H433   1.086   1_655  S
C426        H434   1.087       .  S
C435        C443   1.479       .  S
C435        C436   1.402       .  A
C435        C440   1.405       .  A
C436        C437   1.400       .  A
C436        H445   1.083       .  S
C437        C438   1.407       .  A
C437        H446   1.083       .  S
C438        C441   1.482       .  S
C438        C439   1.403       .  A
C439        C440   1.398       .  A
C439        H447   1.083       .  S
C440        H448   1.083       .  S
C441        C442   1.346       .  D
C441        H449   1.087       .  S
C442        H450   1.086       .  S
C443        C444   1.342       .  D
C443        H451   1.087       .  S
C444        H452   1.087       .  S
C453        C461   1.499       .  S
C453        C454   1.405       .  A
C453        C458   1.411   1_655  A
C454        C455   1.401       .  A
C454        H463   1.083       .  S
C455        C456   1.410       .  A
C455        H464   1.080       .  S
C456        C459   1.498       .  S
C456        C457   1.404       .  A
C457        C458   1.402   1_655  A
C457        H465   1.083   1_655  S
C458        H466   1.079       .  S
C459        C460   1.348       .  D
C459        H467   1.087       .  S
C460        H468   1.083       .  S
C461        C462   1.348       .  D
C461        H469   1.087       .  S
C462        H470   1.082   1_655  S
C471        C479   1.492       .  S
C471        C472   1.403       .  A
C471        C476   1.409       .  A
C472        C473   1.396       .  A
C472        H481   1.083       .  S
C473        C474   1.405       .  A
C473        H482   1.083       .  S
C474        C477   1.493       .  S
C474        C475   1.407       .  A
C475        C476   1.409       .  A
C475        H483   1.083       .  S
C476        H484   1.082       .  S
C477        C478   1.347       .  D
C477        H485   1.086       .  S
C478        H486   1.087       .  S
C479        C480   1.351       .  D
C479        H487   1.087       .  S
C480        H488   1.085       .  S
C489        C497   1.493       .  S
C489        C490   1.404       .  A
C489        C494   1.411       .  A
C490        C491   1.395       .  A
C490        H499   1.083       .  S
C491        C492   1.406       .  A
C491        H500   1.082       .  S
C492        C495   1.490       .  S
C492        C493   1.404       .  A
C493        C494   1.404       .  A
C493        H501   1.083       .  S
C494        H502   1.080       .  S
C495        C496   1.346       .  D
C495        H503   1.087       .  S
C496        H504   1.086       .  S
C497        C498   1.349       .  D
C497        H505   1.087       .  S
C498        H506   1.083       .  S
C507        C515   1.489       .  S
C507        C508   1.403       .  A
C507        C512   1.408       .  A
C508        C509   1.397       .  A
C508        H517   1.084       .  S
C509        C510   1.406       .  A
C509        H518   1.082       .  S
C510        C513   1.490       .  S
C510        C511   1.405   1_565  A
C511        C512   1.404   1_545  A
C511        H519   1.083       .  S
C512        H520   1.082   1_565  S
C513        C514   1.346       .  D
C513        H521   1.086   1_565  S
C514        H522   1.086       .  S
C515        C516   1.349       .  D
C515        H523   1.087       .  S
C516        H524   1.085       .  S
C525        C533   1.498       .  S
C525        C526   1.406   1_655  A
C525        C530   1.410       .  A
C526        C527   1.400       .  A
C526        H535   1.084       .  S
C527        C528   1.407   1_455  A
C527        H536   1.082       .  S
C528        C531   1.497       .  S
C528        C529   1.406       .  A
C529        C530   1.406       .  A
C529        H537   1.083       .  S
C530        H538   1.080       .  S
C531        C532   1.349   1_655  D
C531        H539   1.086       .  S
C532        H540   1.086       .  S
C533        C534   1.354       .  D
C533        H541   1.087   1_655  S
C534        H542   1.083       .  S
C543        C551   1.484       .  S
C543        C544   1.403       .  A
C543        C548   1.405       .  A
C544        C545   1.401       .  A
C544        H553   1.083       .  S
C545        C546   1.406       .  A
C545        H554   1.082       .  S
C546        C549   1.483       .  S
C546        C547   1.403       .  A
C547        C548   1.398       .  A
C547        H555   1.084       .  S
C548        H556   1.083       .  S
C549        C550   1.347       .  D
C549        H557   1.087       .  S
C550        H558   1.086       .  S
C551        C552   1.342       .  D
C551        H559   1.087       .  S
C552        H560   1.087       .  S
C561        C569   1.483       .  S
C561        C562   1.402   1_655  A
C561        C566   1.407       .  A
C562        C563   1.399       .  A
C562        H571   1.083       .  S
C563        C564   1.408   1_455  A
C563        H572   1.082       .  S
C564        C567   1.483       .  S
C564        C565   1.402       .  A
C565        C566   1.398       .  A
C565        H573   1.083       .  S
C566        H574   1.083       .  S
C567        C568   1.344       .  D
C567        H575   1.087       .  S
C568        H576   1.086       .  S
C569        C570   1.343       .  D
C569        H577   1.087   1_655  S
C570        H578   1.086       .  S
C579        C587   1.485       .  S
C579        C580   1.407       .  A
C579        C584   1.402       .  A
C580        C581   1.401       .  A
C580        H589   1.081       .  S
C581        C582   1.410       .  A
C581        H590   1.080       .  S
C582        C585   1.489       .  S
C582        C583   1.403       .  A
C583        C584   1.395       .  A
C583        H591   1.084       .  S
C584        H592   1.084       .  S
C585        C586   1.344       .  D
C585        H593   1.088       .  S
C586        H594   1.082       .  S
C587        C588   1.348       .  D
C587        H595   1.087       .  S
C588        H596   1.085       .  S
C597        C605   1.484       .  S
C597        C598   1.404       .  A
C597        C602   1.403       .  A
C598        C599   1.405       .  A
C598        H607   1.083       .  S
C599        C600   1.410       .  A
C599        H608   1.081       .  S
C600        C603   1.487       .  S
C600        C601   1.403       .  A
C601        C602   1.392       .  A
C601        H609   1.084       .  S
C602        H610   1.083       .  S
C603        C604   1.349       .  D
C603        H611   1.087       .  S
C604        H612   1.084       .  S
C605        C606   1.345       .  D
C605        H613   1.085       .  S
C606        H614   1.084       .  S
C615        C623   1.488       .  S
C615        C616   1.404       .  A
C615        C620   1.410       .  A
C616        C617   1.395       .  A
C616        H625   1.083       .  S
C617        C618   1.405       .  A
C617        H626   1.082       .  S
C618        C621   1.484       .  S
C618        C619   1.403       .  A
C619        C620   1.400       .  A
C619        H627   1.084       .  S
C620        H628   1.079       .  S
C621        C622   1.345       .  D
C621        H629   1.086       .  S
C622        H630   1.084       .  S
C623        C624   1.347       .  D
C623        H631   1.087       .  S
C624        H632   1.083       .  S
C633        C641   1.482       .  S
C633        C634   1.403       .  A
C633        C638   1.406       .  A
C634        C635   1.400       .  A
C634        H643   1.083       .  S
C635        C636   1.407       .  A
C635        H644   1.083       .  S
C636        C639   1.482       .  S
C636        C637   1.401       .  A
C637        C638   1.397       .  A
C637        H645   1.083       .  S
C638        H646   1.083       .  S
C639        C640   1.344       .  D
C639        H647   1.087       .  S
C640        H648   1.087       .  S
C641        C642   1.343       .  D
C641        H649   1.085       .  S
C642        H650   1.086       .  S
C651        C659   1.489       .  S
C651        C652   1.404       .  A
C651        C656   1.409       .  A
C652        C653   1.403       .  A
C652        H661   1.083       .  S
C653        C654   1.407       .  A
C653        H662   1.082       .  S
C654        C657   1.484       .  S
C654        C655   1.401       .  A
C655        C656   1.394       .  A
C655        H663   1.084       .  S
C656        H664   1.082       .  S
C657        C658   1.348       .  D
C657        H665   1.087       .  S
C658        H666   1.085       .  S
C659        C660   1.344       .  D
C659        H667   1.087       .  S
C660        H668   1.084       .  S
C669        C677   1.499       .  S
C669        C670   1.405       .  A
C669        C674   1.409       .  A
C670        C671   1.408       .  A
C670        H679   1.083       .  S
C671        C672   1.413       .  A
C671        H680   1.080       .  S
C672        C675   1.499       .  S
C672        C673   1.403       .  A
C673        C674   1.398       .  A
C673        H681   1.084       .  S
C674        H682   1.082       .  S
C675        C676   1.348       .  D
C675        H683   1.085       .  S
C676        H684   1.083       .  S
C677        C678   1.346       .  D
C677        H685   1.086       .  S
C678        H686   1.086       .  S
C687        C695   1.482       .  S
C687        C688   1.401       .  A
C687        C692   1.408       .  A
C688        C689   1.395       .  A
C688        H697   1.083       .  S
C689        C690   1.406       .  A
C689        H698   1.083       .  S
C690        C693   1.481       .  S
C690        C691   1.402       .  A
C691        C692   1.400       .  A
C691        H699   1.083       .  S
C692        H700   1.082       .  S
C693        C694   1.342       .  D
C693        H701   1.087       .  S
C694        H702   1.086       .  S
C695        C696   1.344       .  D
C695        H703   1.087       .  S
C696        H704   1.086       .  S
C705        C713   1.483       .  S
C705        C706   1.402       .  A
C705        C710   1.407       .  A
C706        C707   1.398       .  A
C706        H715   1.083       .  S
C707        C708   1.407       .  A
C707        H716   1.082       .  S
C708        C711   1.483       .  S
C708        C709   1.403       .  A
C709        C710   1.398       .  A
C709        H717   1.083       .  S
C710        H718   1.083       .  S
C711        C712   1.345       .  D
C711        H719   1.087       .  S
C712        H720   1.086       .  S
C713        C714   1.344       .  D
C713        H721   1.085       .  S
C714        H722   1.085       .  S
C723        C731   1.487       .  S
C723        C724   1.404       .  A
C723        C728   1.405       .  A
C724        C725   1.403       .  A
C724        H733   1.083       .  S
C725        C726   1.409       .  A
C725        H734   1.080       .  S
C726        C729   1.491       .  S
C726        C727   1.405       .  A
C727        C728   1.396       .  A
C727        H735   1.084       .  S
C728        H736   1.082       .  S
C729        C730   1.351       .  D
C729        H737   1.087       .  S
C730        H738   1.083       .  S
C731        C732   1.344       .  D
C731        H739   1.087       .  S
C732        H740   1.085       .  S
C741        C749   1.490       .  S
C741        C742   1.405       .  A
C741        C746   1.407       .  A
C742        C743   1.403       .  A
C742        H751   1.083       .  S
C743        C744   1.406       .  A
C743        H752   1.082       .  S
C744        C747   1.488       .  S
C744        C745   1.404       .  A
C745        C746   1.399       .  A
C745        H753   1.084       .  S
C746        H754   1.082       .  S
C747        C748   1.350       .  D
C747        H755   1.087       .  S
C748        H756   1.085       .  S
C749        C750   1.347       .  D
C749        H757   1.087       .  S
C750        H758   1.085       .  S
C759        C767   1.494       .  S
C759        C760   1.403       .  A
C759        C764   1.410       .  A
C760        C761   1.401       .  A
C760        H769   1.083       .  S
C761        C762   1.411       .  A
C761        H770   1.080       .  S
C762        C765   1.495       .  S
C762        C763   1.404       .  A
C763        C764   1.400       .  A
C763        H771   1.083       .  S
C764        H772   1.081       .  S
C765        C766   1.347       .  D
C765        H773   1.087       .  S
C766        H774   1.084       .  S
C767        C768   1.346       .  D
C767        H775   1.087       .  S
C768        H776   1.085       .  S
C777        C785   1.489       .  S
C777        C778   1.410       .  A
C777        C782   1.400       .  A
C778        C779   1.407       .  A
C778        H787   1.082       .  S
C779        C780   1.409       .  A
C779        H788   1.081       .  S
C780        C783   1.492       .  S
C780        C781   1.405       .  A
C781        C782   1.395       .  A
C781        H789   1.084       .  S
C782        H790   1.084       .  S
C783        C784   1.351       .  D
C783        H791   1.087       .  S
C784        H792   1.084       .  S
C785        C786   1.345       .  D
C785        H793   1.087       .  S
C786        H794   1.085       .  S
C795        C803   1.485       .  S
C795        C796   1.403       .  A
C795        C800   1.408       .  A
C796        C797   1.398       .  A
C796        H805   1.083       .  S
C797        C798   1.406       .  A
C797        H806   1.082       .  S
C798        C801   1.484       .  S
C798        C799   1.403       .  A
C799        C800   1.400       .  A
C799        H807   1.083       .  S
C800        H808   1.082       .  S
C801        C802   1.346       .  D
C801        H809   1.087       .  S
C802        H810   1.086       .  S
C803        C804   1.345       .  D
C803        H811   1.087       .  S
C804        H812   1.085       .  S
