geometry optimzed in LAMMPS
_audit_creation_date              2020-11-30 
_audit_creation_method            'lammps2cif' 
_symmetry_space_group_name_H-M    'P1' 
_symmetry_Int_Tables_number       1 
_symmetry_cell_setting            triclinic 
loop_ 
_symmetry_equiv_pos_as_xyz 
  x,y,z 
_cell_length_a                    45.92820114 
_cell_length_b                    47.37733499129062 
_cell_length_c                    23.432401457692116 
_cell_angle_alpha                 89.08021022566575 
_cell_angle_beta                  91.40488130807043 
_cell_angle_gamma                 121.49110991617502 
loop_ 
_atom_site_label 
_atom_site_type_symbol 
_atom_site_fract_x 
_atom_site_fract_y 
_atom_site_fract_z 
_atom_site_charge 
C1          C  0.40727710  0.12631768  0.02535679     0.03500
C2          C  0.42145919  0.10829960  0.04718216    -0.12700
C3          C  0.40580557  0.07449391  0.37165125     0.01000
C4          C  0.37903370  0.05900857  0.33143090    -0.11200
C5          C  0.36588619  0.07642200  0.30221161     0.03500
C6          C  0.37942325  0.11035949  0.98491921    -0.10600
H7          H  0.44327905  0.12024150  0.07631065     0.09100
H8          H  0.36721877  0.03264013  0.32479300     0.06600
H9          H  0.36811306  0.12377029  0.30056311     0.06400
C10         C  0.12216496  0.22427903  0.02168681     0.03500
C11         C  0.09788200  0.19711007  0.05318726    -0.12700
C12         C  0.06852628  0.17300246  0.02549394     0.01000
C13         C  0.05943933  0.17943863  0.30555881    -0.11200
C14         C  0.07703947  0.21146234  0.28347370     0.03500
C15         C  0.11076589  0.23365741  0.30508522    -0.10600
H16         H  0.10528632  0.19092338  0.09364542     0.09100
H17         H  0.03627704  0.16045402  0.28424792     0.06600
H18         H  0.12745756  0.25689557  0.28365784     0.06400
C19         C  0.20974151  0.13702802  0.31161116     0.03500
C20         C  0.22666350  0.11910769  0.98792353    -0.12700
C21         C  0.21621203  0.09521791  0.03282862     0.01000
C22         C  0.18900104  0.08914844  0.06697734    -0.11200
C23         C  0.17144718  0.10544816  0.39100351     0.03500
C24         C  0.18323065  0.13038078  0.34913896    -0.10600
H25         H  0.24670110  0.12261771  0.95996339     0.09100
H26         H  0.18000536  0.06979385  0.09918963     0.06600
H27         H  0.17039132  0.14344119  0.34357356     0.06400
C28         C  0.12671609  0.42291798  0.29790770     0.03500
C29         C  0.10915731  0.39149880  0.99347446    -0.12700
C30         C  0.08368076  0.38476271  0.03528524     0.01000
C31         C  0.07863190  0.41061831  0.04887183    -0.11200
C32         C  0.09441826  0.44031009  0.01882631     0.03500
C33         C  0.11844745  0.44630716  0.31228038    -0.10600
H34         H  0.11407179  0.37233825  0.98205421     0.09100
H35         H  0.06186871  0.40804435  0.08243325     0.06600
H36         H  0.12893949  0.46877336  0.28857019     0.06400
C37         C  0.37856211  0.29228860  0.03302779     0.03500
C38         C  0.39629053  0.32621820  0.04229486    -0.12700
C39         C  0.42756849  0.34701306  0.01805756     0.01000
C40         C  0.44074686  0.33444120  0.31303004    -0.11200
C41         C  0.42554970  0.30011451  0.30415255     0.03500
C42         C  0.39324229  0.27881928  0.99752343    -0.10100
H43         H  0.38540258  0.33668619  0.06919433     0.09100
H44         H  0.46193478  0.35230032  0.28825695     0.06600
H45         H  0.37980819  0.25232097  0.32459269     0.06400
C46         C  0.27572142  0.36494135  0.29152822     0.03500
C47         C  0.25666734  0.37994374  0.30765232    -0.12700
C48         C  0.27244881  0.40887816  0.01036116     0.01000
C49         C  0.30628258  0.42154907  0.02813181    -0.11200
C50         C  0.32505355  0.40804332  0.34379535     0.03500
C51         C  0.30902109  0.37860238  0.31373568    -0.10600
H52         H  0.23096333  0.37018619  0.95778506     0.09100
H53         H  0.31870997  0.44320033  0.05533602     0.06600
H54         H  0.32354909  0.36717913  0.30433712     0.06400
O55         O  0.44223670  0.46179851  0.08941516    -0.88000
C56         C  0.50744126  0.47424191  0.28950034     0.88000
Mg57       Mg  0.42191265  0.99275460  0.09120930     1.58100
O58         O  0.04517965  0.49967367  0.09277184    -0.87700
O59         O  0.47201350  0.44421672  0.13454747    -0.75100
C60         C  0.05101449  0.13928380  0.37924947     0.93100
O61         O  0.43507993  0.48057821  0.28609984    -0.74900
O62         O  0.01888408  0.12236522  0.37496987    -0.82400
Mg63       Mg  0.43574040  0.44014033  0.33879423     1.58000
C64         C  0.13687021  0.09077888  0.08205853     0.93000
O65         O  0.42996706  0.39526214  0.04981630    -0.80600
H66         H  0.05306343  0.49266365  0.17476628    -0.06000
C67         C  0.05117447  0.06645559  0.31017644     0.87900
O68         O  0.46397505  0.02866638  0.15553441    -0.75100
O69         O  0.49293859  0.46989774  0.33673499    -0.87900
O70         O  0.11936205  0.05972570  0.08991727    -0.80700
C71         C  0.08074830  0.46202025  0.35442627     0.93100
C72         C  0.44601182  0.38221953  0.03260331     0.93000
Mg73       Mg  0.06467012  0.08219164  0.10348031     1.58000
O74         O  0.06877883  0.12723360  0.39594632    -0.80600
O75         O  0.06153613  0.03851969  0.15609055    -0.74900
O76         O  0.04930759  0.44937741  0.34354427    -0.80700
O77         O  0.37919297  0.41318170  0.34257979    -0.82400
O78         O  0.44881861  0.06978821  0.08831080    -0.80800
C79         C  0.05299115  0.00921870  0.14257109     0.87400
O80         O  0.00992613  0.05900323  0.10593908    -0.87900
O81         O  0.05735527  0.05767011  0.35655155    -0.88000
O82         O  0.02613299  0.07064107  0.30361626    -0.75100
Mg83       Mg  0.51162294  0.44940128  0.06870874     1.58000
O84         O  0.09982082  0.49275717  0.36397846    -0.82400
H85         H  0.43304781  0.44593692  0.17046666    -0.06200
O86         O  0.45409609  0.01712937  0.35299174    -0.87700
H87         H  0.44157903  0.02613137  0.27525943    -0.06000
H88         H  0.00922690  0.06449897  0.19025884    -0.06200
C89         C  0.44338852  0.00889462  0.30370306     0.87400
C90         C  0.44825464  0.45054872  0.13303678     0.88000
C91         C  0.49527347  0.05143198  0.15214085     0.88000
H92         H  0.06683933  0.06977373  0.27403265    -0.06100
O93         O  0.03952106  0.49423996  0.28614839    -0.75200
Mg94       Mg  0.48690041  0.06858631  0.36538446     1.58000
H95         H  0.49264458  0.46095030  0.25209087    -0.06200
C96         C  0.36206368  0.42628631  0.35408645     0.93000
O97         O  0.39903150  0.02467790  0.07708388    -0.82400
C98         C  0.41817078  0.05560233  0.07047976     0.93100
O99         O  0.47802929  0.39911983  0.03038331    -0.82400
Mg100      Mg  0.07865322  0.02671599  0.35777351     1.58200
O101        O  0.37599225  0.45534669  0.37405591    -0.80700
O102        O  0.12303236  0.10767006  0.08936873    -0.82400
C103        C  0.49448856  0.25254711  0.14820322    -0.02100
C104        C  0.24458059  0.99830818  0.14279301    -0.02100
C105        C  0.24645371  0.24921450  0.14316353    -0.02100
C106        C  0.25772215  0.42945547  0.02961737     0.00200
C107        C  0.27850633  0.46432544  0.02486972    -0.11700
C108        C  0.27433390  0.48594363  0.05962020     0.02400
C109        C  0.24776447  0.47404031  0.09962926     0.00100
C110        C  0.22360067  0.43905148  0.09686153    -0.11600
C111        C  0.22922882  0.41709174  0.06502773     0.02300
H112        H  0.30051380  0.47485106  0.99744413     0.15300
H113        H  0.20059117  0.42776262  0.12145627     0.15300
C114        C  0.20680563  0.38188928  0.07295283     0.36900
C115        C  0.30034145  0.02025077  0.05833268     0.36900
N116        N  0.18897528  0.35365778  0.07964576    -0.43400
N117        N  0.32153217  0.04778203  0.06142849    -0.43400
C118        C  0.26484566  0.33675048  0.24946707     0.00200
C119        C  0.23409341  0.30620725  0.25376269    -0.11700
C120        C  0.22709723  0.27837759  0.22021842     0.02400
C121        C  0.25271718  0.27883064  0.18490201     0.00100
C122        C  0.28286389  0.31071784  0.18001495    -0.11600
C123        C  0.28814394  0.33888857  0.20861539     0.02300
H124        H  0.21500200  0.30420807  0.28258620     0.15300
H125        H  0.30126673  0.31572658  0.14768894     0.15300
C126        C  0.31723918  0.37055900  0.19197843     0.36900
C127        C  0.19196985  0.25168793  0.21956726     0.36900
N128        N  0.34045423  0.39580848  0.17847332    -0.43400
N129        N  0.16314037  0.23172355  0.21981198    -0.43400
C130        C  0.34445912  0.27366418  0.06103034     0.00200
C131        C  0.31496092  0.26197716  0.02716816    -0.11700
C132        C  0.28365378  0.25492350  0.05013163     0.02400
C133        C  0.28045947  0.25878587  0.11014331     0.00100
C134        C  0.31072785  0.26978303  0.14356778    -0.11600
C135        C  0.34182590  0.27735265  0.12011083     0.02300
H136        H  0.31695548  0.26040595  0.98137398     0.15300
H137        H  0.30992557  0.27224530  0.18936815     0.15300
C138        C  0.37160362  0.29168561  0.15721921     0.36900
C139        C  0.25653824  0.24434514  0.00863804     0.36900
N140        N  0.39582182  0.30446473  0.18611920    -0.43400
N141        N  0.23549269  0.23595064  0.97370212    -0.43400
C142        C  0.44287830  0.28737800  0.26573187     0.00200
C143        C  0.42281785  0.25976761  0.23057510    -0.11700
C144        C  0.43737473  0.24938987  0.18936488     0.02400
C145        C  0.47359412  0.26182223  0.19004374     0.00100
C146        C  0.49306825  0.28898710  0.22625691    -0.11600
C147        C  0.47895913  0.30332383  0.25896475     0.02300
H148        H  0.39531874  0.24853332  0.23037248     0.15300
H149        H  0.02057292  0.30113007  0.22598453     0.15300
C150        C  0.50328370  0.33651131  0.27722726     0.36900
C151        C  0.41426320  0.23050570  0.14307583     0.36900
N152        N  0.52330529  0.36395988  0.28691810    -0.43400
N153        N  0.39511812  0.21583723  0.10633689    -0.43400
C154        C  0.01990596  0.28685906  0.11748592     0.00200
C155        C  0.00521455  0.30293202  0.08936462    -0.11700
C156        C  0.02508709  0.33587003  0.07118822     0.02400
C157        C  0.06107099  0.35108265  0.06338638     0.00100
C158        C  0.07624100  0.33567891  0.09157926    -0.11600
C159        C  0.05658660  0.30747898  0.12605573     0.02300
H160        H  0.47762275  0.29121749  0.08909153     0.15300
H161        H  0.10390826  0.34885729  0.09469428     0.15300
C162        C  0.07450051  0.30624579  0.17677319     0.36900
C163        C  0.00916257  0.35431628  0.08212205     0.36900
N164        N  0.08920784  0.30628087  0.21764586    -0.43400
N165        N  0.49611147  0.36764374  0.09911818    -0.43400
C166        C  0.21206954  0.47564189  0.18115360     0.00200
C167        C  0.18072494  0.47409372  0.17262704    -0.11700
C168        C  0.15125796  0.45189064  0.20298592     0.02400
C169        C  0.15287997  0.43392693  0.25094607     0.00100
C170        C  0.18342906  0.43433931  0.25956307    -0.11600
C171        C  0.21180643  0.45318983  0.22368198     0.02300
H172        H  0.17807310  0.48973862  0.14204043     0.15300
H173        H  0.18535097  0.42017158  0.29467249     0.15300
C174        C  0.23931604  0.44693402  0.22860429     0.36900
C175        C  0.11943811  0.44908940  0.18534987     0.36900
N176        N  0.26092544  0.44121445  0.23024868    -0.43400
N177        N  0.09397994  0.44711844  0.17230782    -0.43400
C178        C  0.24218030  0.02586862  0.10428819     0.00200
C179        C  0.21584857  0.01565324  0.06164778    -0.11700
C180        C  0.20912999  0.03860902  0.03369661     0.02400
C181        C  0.22970253  0.07277022  0.04389222     0.00100
C182        C  0.25844517  0.08376925  0.07817832    -0.11600
C183        C  0.26575554  0.06164891  0.10620194     0.02300
H184        H  0.19904360  0.98951021  0.05276851     0.15300
H185        H  0.27487619  0.11027500  0.08484898     0.15300
C186        C  0.29899797  0.07901225  0.13323411     0.36900
C187        C  0.18057826  0.02837283  0.32835458     0.36900
N188        N  0.32605832  0.09513394  0.15305420    -0.43400
N189        N  0.16007059  0.02576578  0.29559991    -0.43400
C190        C  0.23587075  0.21569626  0.18002455     0.00200
C191        C  0.20194983  0.19383172  0.19837043    -0.11700
C192        C  0.19276240  0.16608340  0.23427786     0.02400
C193        C  0.21802868  0.16203970  0.26278531     0.00100
C194        C  0.25099908  0.18120968  0.24111937    -0.11600
C195        C  0.25801866  0.20323834  0.19455802     0.02300
H196        H  0.18145426  0.19601097  0.18048500     0.15300
H197        H  0.27030173  0.17590986  0.25525077     0.15300
C198        C  0.27950841  0.20100396  0.15313219     0.36900
C199        C  0.15759117  0.13924756  0.23259178     0.36900
N200        N  0.29610073  0.19783327  0.12047693    -0.43400
N201        N  0.12963788  0.11725471  0.22966891    -0.43400
C202        C  0.15826647  0.23402693  0.03564194     0.00200
C203        C  0.18313549  0.26586348  0.05200040    -0.11700
C204        C  0.21360508  0.27196975  0.07923843     0.02400
C205        C  0.21744431  0.24502638  0.09957313     0.00100
C206        C  0.19374871  0.21369576  0.07617342    -0.11600
C207        C  0.16589833  0.20886129  0.04215364     0.02300
H208        H  0.17883648  0.28598823  0.04345578     0.15300
H209        H  0.19753222  0.19314586  0.08279527     0.15300
C210        C  0.14376112  0.17748069  0.01491861     0.36900
C211        C  0.24026460  0.30633747  0.08160637     0.36900
N212        N  0.12422199  0.15320747  0.99192150    -0.43400
N213        N  0.26064472  0.33433112  0.08157057    -0.43400
C214        C  0.01589153  0.23961138  0.18012900     0.00200
C215        C  0.00631450  0.22596836  0.23477766    -0.11700
C216        C  0.02492188  0.21540456  0.26676351     0.02400
C217        C  0.05631113  0.22088853  0.24675772     0.00100
C218        C  0.06408749  0.23028398  0.18968666    -0.11600
C219        C  0.04285922  0.23720654  0.15511075     0.02300
H220        H  0.48312743  0.22227080  0.25195209     0.15300
H221        H  0.08626419  0.23149286  0.17173435     0.15300
C222        C  0.05287650  0.24592362  0.09658477     0.36900
C223        C  0.01015389  0.19693737  0.31866290     0.36900
N224        N  0.06312921  0.25452155  0.05102316    -0.43400
N225        N  0.99950307  0.18129024  0.02648721    -0.43400
C226        C  0.46827283  0.22167629  0.11068738     0.00200
C227        C  0.44623546  0.19195263  0.14035895    -0.11700
C228        C  0.42358688  0.16212680  0.11316556     0.02400
C229        C  0.42107779  0.15992795  0.05287179     0.00100
C230        C  0.44036486  0.18980275  0.02212493    -0.11600
C231        C  0.46457152  0.22002704  0.05028662     0.02300
H232        H  0.44628589  0.19169550  0.18633350     0.15300
H233        H  0.43946795  0.18862370  0.97602024     0.15300
C234        C  0.98929322  0.24715351  0.01686038     0.36900
C235        C  0.40609246  0.13324556  0.14935977     0.36900
N236        N  0.01162383  0.26925861  0.99347295    -0.43400
N237        N  0.39365124  0.11028719  0.17893654    -0.43400
C238        C  0.27561452  0.01674161  0.18779236     0.00200
C239        C  0.30485010  0.01398567  0.18692829    -0.11700
C240        C  0.33428228  0.03389226  0.22120749     0.02400
C241        C  0.33531632  0.05658576  0.26152013     0.00100
C242        C  0.30527129  0.05738212  0.26658236    -0.11600
C243        C  0.27591022  0.03779424  0.23150463     0.02300
H244        H  0.30544587  0.99648936  0.15877921     0.15300
H245        H  0.30479064  0.07386755  0.96426760     0.15300
C246        C  0.24867101  0.04432882  0.23453289     0.36900
C247        C  0.36367333  0.03106984  0.21229498     0.36900
N248        N  0.22767929  0.55083113  0.23359947    -0.43400
N249        N  0.38715976  0.02867058  0.20547824    -0.43400
C250        C  0.40727682  0.12631770  0.35868891     0.03500
C251        C  0.42145914  0.10829977  0.38051404    -0.12700
C252        C  0.40580532  0.07449334  0.70498447     0.01000
C253        C  0.37903347  0.05900813  0.66476410    -0.11200
C254        C  0.36588607  0.07642172  0.63554496     0.03500
C255        C  0.37942280  0.11035932  0.31825165    -0.10600
H256        H  0.44327907  0.12024177  0.40964238     0.09100
H257        H  0.36721848  0.03263970  0.65812607     0.06600
H258        H  0.36811307  0.12377008  0.63389695     0.06400
C259        C  0.12216470  0.22427920  0.35502035     0.03500
C260        C  0.09788171  0.19711026  0.38652078    -0.12700
C261        C  0.06852595  0.17300275  0.35882746     0.01000
C262        C  0.05943934  0.17943822  0.63889002    -0.11200
C263        C  0.07703937  0.21146208  0.61680551     0.03500
C264        C  0.11076564  0.23365725  0.63841760    -0.10600
H265        H  0.10528603  0.19092349  0.42697885     0.09100
H266        H  0.03627717  0.16045364  0.61757882     0.06600
H267        H  0.12745724  0.25689561  0.61699072     0.06400
C268        C  0.20974141  0.13702790  0.64494484     0.03500
C269        C  0.22666372  0.11910793  0.32125731    -0.12700
C270        C  0.21621204  0.09521803  0.36616219     0.01000
C271        C  0.18900113  0.08914872  0.40031096    -0.11200
C272        C  0.17144701  0.10544785  0.72433696     0.03500
C273        C  0.18323034  0.13038039  0.68247231    -0.10600
H274        H  0.24670126  0.12261786  0.29329710     0.09100
H275        H  0.18000531  0.06979405  0.43252313     0.06600
H276        H  0.17039071  0.14344050  0.67690659     0.06400
C277        C  0.12671616  0.42291771  0.63124145     0.03500
C278        C  0.10915695  0.39149873  0.32680781    -0.12700
C279        C  0.08368067  0.38476288  0.36861900     0.01000
C280        C  0.07863220  0.41061869  0.38220589    -0.11200
C281        C  0.09441847  0.44031038  0.35216005     0.03500
C282        C  0.11844752  0.44630682  0.64561463    -0.10600
H283        H  0.11407120  0.37233805  0.31538741     0.09100
H284        H  0.06186930  0.40804491  0.41576766     0.06600
H285        H  0.12893978  0.46877325  0.62190505     0.06400
C286        C  0.37856181  0.29228912  0.36636118     0.03500
C287        C  0.39629048  0.32621866  0.37562909    -0.12700
C288        C  0.42756859  0.34701352  0.35139222     0.01000
C289        C  0.44074681  0.33444078  0.64636416    -0.11200
C290        C  0.42554964  0.30011411  0.63748645     0.03500
C291        C  0.39324192  0.27881987  0.33085645    -0.10100
H292        H  0.38540261  0.33668660  0.40252886     0.09100
H293        H  0.46193483  0.35229995  0.62159133     0.06600
H294        H  0.37980814  0.25232053  0.65792638     0.06400
C295        C  0.27572080  0.36494098  0.62486236     0.03500
C296        C  0.25666699  0.37994371  0.64098612    -0.12700
C297        C  0.27244871  0.40887771  0.34369568     0.01000
C298        C  0.30628245  0.42154858  0.36146657    -0.11200
C299        C  0.32505299  0.40804258  0.67712988     0.03500
C300        C  0.30902033  0.37860163  0.64707025    -0.10600
H301        H  0.23096337  0.37018591  0.29111917     0.09100
H302        H  0.31870974  0.44319972  0.38867105     0.06600
H303        H  0.32354814  0.36717815  0.63767187     0.06400
O304        O  0.44223689  0.46179894  0.42274950    -0.88000
C305        C  0.50744080  0.47424092  0.62283402     0.88000
Mg306      Mg  0.42191267  0.99275492  0.42454270     1.58100
O307        O  0.04518001  0.49967421  0.42610579    -0.87700
O308        O  0.47201404  0.44421760  0.46788204    -0.75100
C309        C  0.05101432  0.13928312  0.71258047     0.93100
O310        O  0.43507921  0.48057709  0.61943316    -0.74900
O311        O  0.01888391  0.12236450  0.70830073    -0.82400
Mg312      Mg  0.43573987  0.44013946  0.67212800     1.58000
C313        C  0.13687044  0.09077943  0.41539203     0.93000
O314        O  0.42996758  0.39526259  0.38315226    -0.80600
H315        H  0.05306401  0.49266446  0.50810025    -0.06000
C316        C  0.05117403  0.06645446  0.64350893     0.87900
O317        O  0.46397504  0.02866695  0.48886765    -0.75100
O318        O  0.49293814  0.46989694  0.67006862    -0.87900
O319        O  0.11936230  0.05972624  0.42325078    -0.80700
C320        C  0.08074798  0.46201949  0.68776025     0.93100
C321        C  0.44601213  0.38221991  0.36593863     0.93000
Mg322      Mg  0.06467024  0.08219209  0.43681361     1.58000
O323        O  0.06877865  0.12723299  0.72927777    -0.80600
O324        O  0.06153649  0.03852038  0.48942416    -0.74900
O325        O  0.04930723  0.44937659  0.67687848    -0.80700
O326        O  0.37919236  0.41318080  0.67591376    -0.82400
O327        O  0.44881853  0.06978843  0.42164347    -0.80800
C328        C  0.05299160  0.00921939  0.47590491     0.87400
O329        O  0.00992617  0.05900354  0.43927229    -0.87900
O330        O  0.05735498  0.05766933  0.68988428    -0.88000
O331        O  0.02613245  0.07063978  0.63694851    -0.75100
Mg332      Mg  0.51162329  0.44940178  0.40204320     1.58000
O333        O  0.09982049  0.49275643  0.69731221    -0.82400
H334        H  0.43304851  0.44593801  0.50380139    -0.06200
O335        O  0.45409565  0.01712845  0.68632477    -0.87700
H336        H  0.44157833  0.02613021  0.60859248    -0.06000
H337        H  0.00922689  0.06449961  0.52359192    -0.06200
C338        C  0.44338790  0.00889354  0.63703621     0.87400
C339        C  0.44825513  0.45054954  0.46637134     0.88000
C340        C  0.49527348  0.05143249  0.48547405     0.88000
H341        H  0.06683883  0.06977240  0.60736515    -0.06100
O342        O  0.03952061  0.49423893  0.61948199    -0.75200
Mg343      Mg  0.48690009  0.06858545  0.69871657     1.58000
H344        H  0.49264410  0.46094918  0.58542465    -0.06200
C345        C  0.36206314  0.42628545  0.68742071     0.93000
O346        O  0.39903146  0.02467811  0.41041649    -0.82400
C347        C  0.41817075  0.05560253  0.40381221     0.93100
O348        O  0.47802959  0.39912016  0.36371825    -0.82400
Mg349      Mg  0.07865290  0.02671520  0.69110689     1.58200
O350        O  0.37599182  0.45534583  0.70739019    -0.80700
O351        O  0.12303255  0.10767059  0.42270201    -0.82400
C352        C  0.49448810  0.25254691  0.48153611    -0.02100
C353        C  0.24458046  0.99830811  0.47612631    -0.02100
C354        C  0.24645323  0.24921435  0.47649723    -0.02100
C355        C  0.25772205  0.42945508  0.36295156     0.00200
C356        C  0.27850630  0.46432502  0.35820375    -0.11700
C357        C  0.27433381  0.48594334  0.39295379     0.02400
C358        C  0.24776430  0.47404015  0.43296265     0.00100
C359        C  0.22360042  0.43905134  0.43019502    -0.11600
C360        C  0.22922859  0.41709147  0.39836161     0.02300
H361        H  0.30051386  0.47485054  0.33077837     0.15300
H362        H  0.20059085  0.42776258  0.45478956     0.15300
C363        C  0.20680522  0.38188905  0.40628672     0.36900
C364        C  0.30034150  0.02025038  0.39166620     0.36900
N365        N  0.18897467  0.35365757  0.41297971    -0.43400
N366        N  0.32153244  0.04778157  0.39476183    -0.43400
C367        C  0.26484501  0.33675024  0.58280090     0.00200
C368        C  0.23409270  0.30620703  0.58709624    -0.11700
C369        C  0.22709660  0.27837737  0.55355201     0.02400
C370        C  0.25271664  0.27883045  0.51823576     0.00100
C371        C  0.28286336  0.31071765  0.51334891    -0.11600
C372        C  0.28814341  0.33888834  0.54194946     0.02300
H373        H  0.21500123  0.30420781  0.61591964     0.15300
H374        H  0.30126629  0.31572645  0.48102306     0.15300
C375        C  0.31723896  0.37055872  0.52531315     0.36900
C376        C  0.19196930  0.25168755  0.55290093     0.36900
N377        N  0.34045433  0.39580813  0.51180862    -0.43400
N378        N  0.16313988  0.23172300  0.55314569    -0.43400
C379        C  0.34445875  0.27366468  0.39436356     0.00200
C380        C  0.31496057  0.26197783  0.36050139    -0.11700
C381        C  0.28365336  0.25492387  0.38346505     0.02400
C382        C  0.28045901  0.25878588  0.44347686     0.00100
C383        C  0.31072741  0.26978302  0.47690124    -0.11600
C384        C  0.34182547  0.27735277  0.45344416     0.02300
H385        H  0.31695516  0.26040691  0.31470714     0.15300
H386        H  0.30992511  0.27224509  0.52270166     0.15300
C387        C  0.37160312  0.29168534  0.49055269     0.36900
C388        C  0.25653778  0.24434554  0.34197156     0.36900
N389        N  0.39582125  0.30446409  0.51945288    -0.43400
N390        N  0.23549215  0.23595103  0.30703579    -0.43400
C391        C  0.44287817  0.28737764  0.59906563     0.00200
C392        C  0.42281763  0.25976731  0.56390879    -0.11700
C393        C  0.43737439  0.24938962  0.52269832     0.02400
C394        C  0.47359375  0.26182188  0.52337706     0.00100
C395        C  0.49306798  0.28898657  0.55959054    -0.11600
C396        C  0.47895899  0.30332339  0.59229843     0.02300
H397        H  0.39531853  0.24853308  0.56370626     0.15300
H398        H  0.02057263  0.30112944  0.55931810     0.15300
C399        C  0.50328364  0.33651093  0.61056052     0.36900
C400        C  0.41426279  0.23050563  0.47640922     0.36900
N401        N  0.52330533  0.36395952  0.62025097    -0.43400
N402        N  0.39511762  0.21583733  0.43967028    -0.43400
C403        C  0.01990550  0.28685904  0.45081913     0.00200
C404        C  0.00521420  0.30293236  0.42269859    -0.11700
C405        C  0.02508693  0.33587047  0.40452259     0.02400
C406        C  0.06107075  0.35108281  0.39672015     0.00100
C407        C  0.07624061  0.33567875  0.42491233    -0.11600
C408        C  0.05658616  0.30747880  0.45938874     0.02300
H409        H  0.47762244  0.29121806  0.42242591     0.15300
H410        H  0.10390787  0.34885690  0.42802702     0.15300
C411        C  0.07450007  0.30624554  0.51010612     0.36900
C412        C  0.00916287  0.35431705  0.41545746     0.36900
N413        N  0.08920742  0.30628057  0.55097874    -0.43400
N414        N  0.49611230  0.36764487  0.43245432    -0.43400
C415        C  0.21206949  0.47564188  0.51448705     0.00200
C416        C  0.18072493  0.47409382  0.50596086    -0.11700
C417        C  0.15125799  0.45189077  0.53631989     0.02400
C418        C  0.15288003  0.43392689  0.58427975     0.00100
C419        C  0.18342911  0.43433924  0.59289648    -0.11600
C420        C  0.21180645  0.45318983  0.55701538     0.02300
H421        H  0.17807308  0.48973882  0.47537446     0.15300
H422        H  0.18535106  0.42017145  0.62800578     0.15300
C423        C  0.23931617  0.44693419  0.56193787     0.36900
C424        C  0.11943818  0.44908977  0.51868431     0.36900
N425        N  0.26092569  0.44121478  0.56358257    -0.43400
N426        N  0.09398006  0.44711903  0.50564264    -0.43400
C427        C  0.24218015  0.02586849  0.43762133     0.00200
C428        C  0.21584819  0.01565311  0.39498134    -0.11700
C429        C  0.20912959  0.03860893  0.36703033     0.02400
C430        C  0.22970235  0.07277015  0.37722562     0.00100
C431        C  0.25844521  0.08376914  0.41151113    -0.11600
C432        C  0.26575555  0.06164876  0.43953465     0.02300
H433        H  0.19904307  0.98951007  0.38610233     0.15300
H434        H  0.27487640  0.11027489  0.41818148     0.15300
C435        C  0.29899809  0.07901202  0.46656643     0.36900
C436        C  0.18057871  0.02837303  0.66168872     0.36900
N437        N  0.32605852  0.09513364  0.48638623    -0.43400
N438        N  0.16007083  0.02576572  0.62893429    -0.43400
C439        C  0.23587036  0.21569609  0.51335822     0.00200
C440        C  0.20194942  0.19383132  0.53170387    -0.11700
C441        C  0.19276212  0.16608295  0.56761116     0.02400
C442        C  0.21802850  0.16203955  0.59611895     0.00100
C443        C  0.25099896  0.18120982  0.57445336    -0.11600
C444        C  0.25801846  0.20323843  0.52789196     0.02300
H445        H  0.18145377  0.19601044  0.51381844     0.15300
H446        H  0.27030173  0.17591023  0.58858501     0.15300
C447        C  0.27950835  0.20100415  0.48646629     0.36900
C448        C  0.15759104  0.13924679  0.56592458     0.36900
N449        N  0.29610081  0.19783359  0.45381117    -0.43400
N450        N  0.12963789  0.11725368  0.56300146    -0.43400
C451        C  0.15826617  0.23402699  0.36897545     0.00200
C452        C  0.18313525  0.26586351  0.38533391    -0.11700
C453        C  0.21360477  0.27196967  0.41257202     0.02400
C454        C  0.21744382  0.24502624  0.43290690     0.00100
C455        C  0.19374820  0.21369564  0.40950714    -0.11600
C456        C  0.16589791  0.20886127  0.37548721     0.02300
H457        H  0.17883636  0.28598834  0.37678919     0.15300
H458        H  0.19753167  0.19314572  0.41612898     0.15300
C459        C  0.14376077  0.17748071  0.34825199     0.36900
C460        C  0.24026449  0.30633732  0.41493971     0.36900
N461        N  0.12422182  0.15320748  0.32525474    -0.43400
N462        N  0.26064486  0.33433090  0.41490374    -0.43400
C463        C  0.01589108  0.23961105  0.51346150     0.00200
C464        C  0.00631408  0.22596780  0.56811004    -0.11700
C465        C  0.02492159  0.21540404  0.60009564     0.02400
C466        C  0.05631092  0.22088827  0.58008975     0.00100
C467        C  0.06408722  0.23028389  0.52301872    -0.11600
C468        C  0.04285885  0.23720641  0.48844302     0.02300
H469        H  0.48312701  0.22227013  0.58528473     0.15300
H470        H  0.08626398  0.23149295  0.50506629     0.15300
C471        C  0.05287619  0.24592384  0.42991714     0.36900
C472        C  0.01015368  0.19693665  0.65199490     0.36900
N473        N  0.06312899  0.25452213  0.38435567    -0.43400
N474        N  0.99950261  0.18129069  0.35982063    -0.43400
C475        C  0.46827224  0.22167619  0.44402013     0.00200
C476        C  0.44623493  0.19195242  0.47369151    -0.11700
C477        C  0.42358644  0.16212661  0.44649795     0.02400
C478        C  0.42107731  0.15992790  0.38620415     0.00100
C479        C  0.44036419  0.18980284  0.35545751    -0.11600
C480        C  0.46457076  0.22002711  0.38361942     0.02300
H481        H  0.44628540  0.19169517  0.51966606     0.15300
H482        H  0.43946725  0.18862395  0.30935280     0.15300
C483        C  0.98929230  0.24715379  0.35019343     0.36900
C484        C  0.40609226  0.13324526  0.48269199     0.36900
N485        N  0.01162289  0.26925907  0.32680629    -0.43400
N486        N  0.39365126  0.11028681  0.51226861    -0.43400
C487        C  0.27561444  0.01674163  0.52112554     0.00200
C488        C  0.30484990  0.01398552  0.52026164    -0.11700
C489        C  0.33428209  0.03389203  0.55454082     0.02400
C490        C  0.33531625  0.05658565  0.59485333     0.00100
C491        C  0.30527133  0.05738226  0.59991534    -0.11600
C492        C  0.27591025  0.03779444  0.56483758     0.02300
H493        H  0.30544556  0.99648906  0.49211281     0.15300
H494        H  0.30479000  0.07386675  0.29760100     0.15300
C495        C  0.24867109  0.04432910  0.56786582     0.36900
C496        C  0.36367298  0.03106933  0.54562848     0.36900
N497        N  0.22767931  0.55083135  0.56693258    -0.43400
N498        N  0.38715923  0.02866976  0.53881182    -0.43400
C499        C  0.40727664  0.12631715  0.69202283     0.03500
C500        C  0.42145891  0.10829914  0.71384763    -0.12700
C501        C  0.40580556  0.07449377  0.03831913     0.01000
C502        C  0.37903376  0.05900856  0.99809863    -0.11200
C503        C  0.36588651  0.07642217  0.96887913     0.03500
C504        C  0.37942272  0.11035899  0.65158536    -0.10600
H505        H  0.44327888  0.12024104  0.74297591     0.09100
H506        H  0.36721876  0.03264012  0.99146061     0.06600
H507        H  0.36811373  0.12377062  0.96723043     0.06400
C508        C  0.12216439  0.22427887  0.68835264     0.03500
C509        C  0.09788139  0.19710962  0.71985245    -0.12700
C510        C  0.06852583  0.17300212  0.69215862     0.01000
C511        C  0.05943975  0.17943819  0.97222507    -0.11200
C512        C  0.07703980  0.21146187  0.95013983     0.03500
C513        C  0.11076613  0.23365710  0.97175153    -0.10600
H514        H  0.10528560  0.19092272  0.76031050     0.09100
H515        H  0.03627751  0.16045350  0.95091419     0.06600
H516        H  0.12745773  0.25689529  0.95032417     0.06400
C517        C  0.20974102  0.13702752  0.97827714     0.03500
C518        C  0.22666391  0.11910811  0.65459134    -0.12700
C519        C  0.21621230  0.09521824  0.69949627     0.01000
C520        C  0.18900121  0.08914870  0.73364480    -0.11200
C521        C  0.17144687  0.10544763  0.05766971     0.03500
C522        C  0.18323010  0.13038010  0.01580491    -0.10600
H523        H  0.24670160  0.12261821  0.62663132     0.09100
H524        H  0.18000544  0.06979405  0.76585700     0.06600
H525        H  0.17039059  0.14344029  0.01023941     0.06400
C526        C  0.12671644  0.42291812  0.96457457     0.03500
C527        C  0.10915701  0.39149831  0.66014111    -0.12700
C528        C  0.08368061  0.38476220  0.70195222     0.01000
C529        C  0.07863188  0.41061783  0.71553925    -0.11200
C530        C  0.09441822  0.44030968  0.68549389     0.03500
C531        C  0.11844761  0.44630715  0.97894724    -0.10600
H532        H  0.11407136  0.37233774  0.64872047     0.09100
H533        H  0.06186880  0.40804382  0.74910089     0.06600
H534        H  0.12893973  0.46877346  0.95523741     0.06400
C535        C  0.37856166  0.29228859  0.69969489     0.03500
C536        C  0.39629025  0.32621811  0.70896289    -0.12700
C537        C  0.42756840  0.34701302  0.68472625     0.01000
C538        C  0.44074689  0.33444064  0.97969583    -0.11200
C539        C  0.42554992  0.30011391  0.97081910     0.03500
C540        C  0.39324184  0.27881941  0.66419022    -0.10100
H541        H  0.38540228  0.33668599  0.73586259     0.09100
H542        H  0.46193475  0.35229966  0.95492252     0.06600
H543        H  0.37980872  0.25232034  0.99126023     0.06400
C544        C  0.27572132  0.36494152  0.95819425     0.03500
C545        C  0.25666733  0.37994405  0.97431810    -0.12700
C546        C  0.27244849  0.40887760  0.67702969     0.01000
C547        C  0.30628209  0.42154809  0.69480097    -0.11200
C548        C  0.32505355  0.40804361  0.01046094     0.03500
C549        C  0.30902096  0.37860250  0.98040178    -0.10600
H550        H  0.23096315  0.37018621  0.62445258     0.09100
H551        H  0.31870949  0.44319919  0.72200555     0.06600
H552        H  0.32354883  0.36717906  0.97100365     0.06400
O553        O  0.44223652  0.46179834  0.75608312    -0.88000
C554        C  0.50744121  0.47424178  0.95616610     0.88000
Mg555      Mg  0.42191243  0.99275437  0.75787612     1.58100
O556        O  0.04517973  0.49967376  0.75943927    -0.87700
O557        O  0.47201377  0.44421722  0.80121595    -0.75100
C558        C  0.05101470  0.13928358  0.04591631     0.93100
O559        O  0.43508008  0.48057856  0.95276579    -0.74900
O560        O  0.01888427  0.12236513  0.04163701    -0.82400
Mg561      Mg  0.43574029  0.44014033  0.00545940     1.58000
C562        C  0.13687018  0.09077893  0.74872510     0.93000
O563        O  0.42996724  0.39526197  0.71648647    -0.80600
H564        H  0.05306378  0.49266430  0.84143384    -0.06000
C565        C  0.05117427  0.06645530  0.97684306     0.87900
O566        O  0.46397500  0.02866669  0.82220047    -0.75100
O567        O  0.49293844  0.46989751  0.00340067    -0.87900
O568        O  0.11936214  0.05972574  0.75658384    -0.80700
C569        C  0.08074807  0.46201994  0.02109232     0.93100
C570        C  0.44601185  0.38221936  0.69927284     0.93000
Mg571      Mg  0.06466994  0.08219163  0.77014595     1.58000
O572        O  0.06877894  0.12723326  0.06261306    -0.80600
O573        O  0.06153620  0.03852015  0.82275726    -0.74900
O574        O  0.04930742  0.44937716  0.01020992    -0.80700
O575        O  0.37919290  0.41318192  0.00924455    -0.82400
O576        O  0.44881847  0.06978787  0.75497578    -0.80800
C577        C  0.05299133  0.00921911  0.80923840     0.87400
O578        O  0.00992596  0.05900311  0.77260468    -0.87900
O579        O  0.05735507  0.05766975  0.02321811    -0.88000
O580        O  0.02613286  0.07064090  0.97028303    -0.75100
Mg581      Mg  0.51162298  0.44940125  0.73537719     1.58000
O582        O  0.09982061  0.49275684  0.03064457    -0.82400
H583        H  0.43304819  0.44593760  0.83713511    -0.06200
O584        O  0.45409603  0.01712932  0.01965843    -0.87700
H585        H  0.44157914  0.02613174  0.94192632    -0.06000
H586        H  0.00922691  0.06449954  0.85692427    -0.06200
C587        C  0.44338857  0.00889484  0.97036963     0.87400
C588        C  0.44825481  0.45054907  0.79970508     0.88000
C589        C  0.49527341  0.05143224  0.81880654     0.88000
H590        H  0.06683908  0.06977340  0.94069921    -0.06100
O591        O  0.03952103  0.49423985  0.95281437    -0.75200
Mg592      Mg  0.48690042  0.06858618  0.03205144     1.58000
H593        H  0.49264460  0.46095026  0.91875652    -0.06200
C594        C  0.36206365  0.42628645  0.02075204     0.93000
O595        O  0.39903128  0.02467756  0.74374959    -0.82400
C596        C  0.41817059  0.05560195  0.73714501     0.93100
O597        O  0.47802930  0.39911964  0.69705262    -0.82400
Mg598      Mg  0.07865303  0.02671564  0.02443981     1.58200
O599        O  0.37599223  0.45534661  0.04072244    -0.80700
O600        O  0.12303214  0.10767000  0.75603465    -0.82400
C601        C  0.49448849  0.25254633  0.81486976    -0.02100
C602        C  0.24458105  0.99830858  0.80946019    -0.02100
C603        C  0.24645311  0.24921429  0.80983009    -0.02100
C604        C  0.25772214  0.42945527  0.69628542     0.00200
C605        C  0.27850672  0.46432521  0.69153787    -0.11700
C606        C  0.27433434  0.48594363  0.72628784     0.02400
C607        C  0.24776476  0.47404057  0.76629654     0.00100
C608        C  0.22360058  0.43905184  0.76352851    -0.11600
C609        C  0.22922854  0.41709184  0.73169510     0.02300
H610        H  0.30051435  0.47485061  0.66411268     0.15300
H611        H  0.20059089  0.42776323  0.78812271     0.15300
C612        C  0.20680477  0.38188944  0.73961980     0.36900
C613        C  0.30034199  0.02025068  0.72500008     0.36900
N614        N  0.18897387  0.35365799  0.74631247    -0.43400
N615        N  0.32153279  0.04778192  0.72809563    -0.43400
C616        C  0.26484553  0.33675052  0.91613338     0.00200
C617        C  0.23409326  0.30620731  0.92042926    -0.11700
C618        C  0.22709702  0.27837751  0.88688535     0.02400
C619        C  0.25271682  0.27883045  0.85156873     0.00100
C620        C  0.28286360  0.31071760  0.84668151    -0.11600
C621        C  0.28814382  0.33888841  0.87528188     0.02300
H622        H  0.21500191  0.30420824  0.94925277     0.15300
H623        H  0.30126638  0.31572626  0.81435545     0.15300
C624        C  0.31723933  0.37055871  0.85864508     0.36900
C625        C  0.19196971  0.25168773  0.88623480     0.36900
N626        N  0.34045467  0.39580804  0.84514014    -0.43400
N627        N  0.16314029  0.23172321  0.88647997    -0.43400
C628        C  0.34445856  0.27366410  0.72769703     0.00200
C629        C  0.31496049  0.26197749  0.69383465    -0.11700
C630        C  0.28365331  0.25492372  0.71679811     0.02400
C631        C  0.28045886  0.25878565  0.77680989     0.00100
C632        C  0.31072713  0.26978247  0.81023450    -0.11600
C633        C  0.34182518  0.27735209  0.78677763     0.02300
H634        H  0.31695517  0.26040664  0.64804041     0.15300
H635        H  0.30992474  0.27224448  0.85603493     0.15300
C636        C  0.37160277  0.29168458  0.82388629     0.36900
C637        C  0.25653784  0.24434562  0.67530451     0.36900
N638        N  0.39582088  0.30446331  0.85278655    -0.43400
N639        N  0.23549230  0.23595124  0.64036862    -0.43400
C640        C  0.44287846  0.28737731  0.93239859     0.00200
C641        C  0.42281794  0.25976680  0.89724213    -0.11700
C642        C  0.43737470  0.24938898  0.85603189     0.02400
C643        C  0.47359411  0.26182139  0.85671050     0.00100
C644        C  0.49306831  0.28898626  0.89292364    -0.11600
C645        C  0.47895927  0.30332313  0.92563129     0.02300
H646        H  0.39531882  0.24853248  0.89703972     0.15300
H647        H  0.02057297  0.30112923  0.89265111     0.15300
C648        C  0.50328383  0.33651077  0.94389306     0.36900
C649        C  0.41426300  0.23050462  0.80974316     0.36900
N650        N  0.52330543  0.36395942  0.95358329    -0.43400
N651        N  0.39511773  0.21583600  0.77300452    -0.43400
C652        C  0.01990586  0.28685834  0.78415249     0.00200
C653        C  0.00521443  0.30293142  0.75603163    -0.11700
C654        C  0.02508698  0.33586947  0.73785539     0.02400
C655        C  0.06107085  0.35108206  0.73005322     0.00100
C656        C  0.07624087  0.33567821  0.75824569    -0.11600
C657        C  0.05658651  0.30747822  0.79272209     0.02300
H658        H  0.47762266  0.29121697  0.75575880     0.15300
H659        H  0.10390813  0.34885654  0.76136053     0.15300
C660        C  0.07450048  0.30624500  0.84343944     0.36900
C661        C  0.00916259  0.35431577  0.74878985     0.36900
N662        N  0.08920784  0.30628005  0.88431205    -0.43400
N663        N  0.49611165  0.36764327  0.76578643    -0.43400
C664        C  0.21207007  0.47564243  0.84782089     0.00200
C665        C  0.18072558  0.47409450  0.83929467    -0.11700
C666        C  0.15125853  0.45189125  0.86965321     0.02400
C667        C  0.15288044  0.43392730  0.91761309     0.00100
C668        C  0.18342949  0.43433957  0.92622994    -0.11600
C669        C  0.21180687  0.45319016  0.89034891     0.02300
H670        H  0.17807384  0.48973965  0.80870848     0.15300
H671        H  0.18535131  0.42017164  0.96133909     0.15300
C672        C  0.23931633  0.44693412  0.89527067     0.36900
C673        C  0.11943871  0.44909002  0.85201700     0.36900
N674        N  0.26092561  0.44121437  0.89691449    -0.43400
N675        N  0.09398056  0.44711906  0.83897475    -0.43400
C676        C  0.24218079  0.02586897  0.77095523     0.00200
C677        C  0.21584886  0.01565354  0.72831521    -0.11700
C678        C  0.20913014  0.03860928  0.70036431     0.02400
C679        C  0.22970277  0.07277050  0.71055975     0.00100
C680        C  0.25844565  0.08376957  0.74484527    -0.11600
C681        C  0.26575613  0.06164924  0.77286864     0.02300
H682        H  0.19904380  0.98951049  0.71943621     0.15300
H683        H  0.27487675  0.11027533  0.75151573     0.15300
C684        C  0.29899871  0.07901253  0.79990034     0.36900
C685        C  0.18057880  0.02837289  0.99502050     0.36900
N686        N  0.32605916  0.09513413  0.81972010    -0.43400
N687        N  0.16007122  0.02576584  0.96226563    -0.43400
C688        C  0.23587008  0.21569593  0.84669084     0.00200
C689        C  0.20194917  0.19383133  0.86503669    -0.11700
C690        C  0.19276176  0.16608295  0.90094400     0.02400
C691        C  0.21802808  0.16203920  0.92945126     0.00100
C692        C  0.25099843  0.18120917  0.90778511    -0.11600
C693        C  0.25801792  0.20323786  0.86122384     0.02300
H694        H  0.18145360  0.19601062  0.84715129     0.15300
H695        H  0.27030110  0.17590931  0.92191620     0.15300
C696        C  0.27950732  0.20100330  0.81979751     0.36900
C697        C  0.15759053  0.13924711  0.89925791     0.36900
N698        N  0.29609938  0.19783252  0.78714182    -0.43400
N699        N  0.12963723  0.11725430  0.89633507    -0.43400
C700        C  0.15826591  0.23402691  0.70230821     0.00200
C701        C  0.18313468  0.26586338  0.71866750    -0.11700
C702        C  0.21360423  0.27196967  0.74590573     0.02400
C703        C  0.21744367  0.24502632  0.76623983     0.00100
C704        C  0.19374824  0.21369579  0.74283959    -0.11600
C705        C  0.16589797  0.20886139  0.70881952     0.02300
H706        H  0.17883552  0.28598808  0.71012329     0.15300
H707        H  0.19753186  0.19314595  0.74946114     0.15300
C708        C  0.14376111  0.17748096  0.68158372     0.36900
C709        C  0.24026352  0.30633746  0.74827434     0.36900
N710        N  0.12422222  0.15320787  0.65858604    -0.43400
N711        N  0.26064342  0.33433118  0.74823906    -0.43400
C712        C  0.01589152  0.23961060  0.84679537     0.00200
C713        C  0.00631466  0.22596769  0.90144413    -0.11700
C714        C  0.02492213  0.21540396  0.93342987     0.02400
C715        C  0.05631133  0.22088793  0.91342388     0.00100
C716        C  0.06408753  0.23028327  0.85635271    -0.11600
C717        C  0.04285915  0.23720575  0.82177692     0.02300
H718        H  0.48312765  0.22227017  0.91861878     0.15300
H719        H  0.08626420  0.23149215  0.83840025     0.15300
C720        C  0.05287628  0.24592285  0.76325089     0.36900
C721        C  0.01015429  0.19693685  0.98532940     0.36900
N722        N  0.06312883  0.25452084  0.71768922    -0.43400
N723        N  0.99950246  0.18128983  0.69315250    -0.43400
C724        C  0.46827267  0.22167555  0.77735392     0.00200
C725        C  0.44623550  0.19195181  0.80702546    -0.11700
C726        C  0.42358680  0.16212603  0.77983204     0.02400
C727        C  0.42107734  0.15992732  0.71953823     0.00100
C728        C  0.44036421  0.18980221  0.68879150    -0.11600
C729        C  0.46457099  0.22002643  0.71695322     0.02300
H730        H  0.44628621  0.19169457  0.85300003     0.15300
H731        H  0.43946711  0.18862329  0.64268678     0.15300
C732        C  0.98929245  0.24715297  0.68352689     0.36900
C733        C  0.40609274  0.13324471  0.81602619     0.36900
N734        N  0.01162293  0.26925813  0.66013937    -0.43400
N735        N  0.39365184  0.11028633  0.84560296    -0.43400
C736        C  0.27561498  0.01674205  0.85445951     0.00200
C737        C  0.30485045  0.01398592  0.85359575    -0.11700
C738        C  0.33428262  0.03389247  0.88787497     0.02400
C739        C  0.33531674  0.05658611  0.92818739     0.00100
C740        C  0.30527185  0.05738276  0.93324920    -0.11600
C741        C  0.27591078  0.03779491  0.89817144     0.02300
H742        H  0.30544614  0.99648949  0.82544688     0.15300
H743        H  0.30479012  0.07386697  0.63093390     0.15300
C744        C  0.24867172  0.04432972  0.90119936     0.36900
C745        C  0.36367362  0.03106995  0.87896258     0.36900
N746        N  0.22768015  0.55083224  0.90026574    -0.43400
N747        N  0.38716001  0.02867063  0.87214580    -0.43400
C748        C  0.40728668  0.62630871  0.02535366     0.03500
C749        C  0.42146858  0.60829087  0.04718149    -0.12700
C750        C  0.40581205  0.57448400  0.37165891     0.01000
C751        C  0.37903984  0.55899748  0.33143949    -0.11200
C752        C  0.36589511  0.57641150  0.30221417     0.03500
C753        C  0.37943320  0.61034970  0.98491653    -0.10600
H754        H  0.44328901  0.62023374  0.07630865     0.09100
H755        H  0.36722310  0.53262844  0.32480587     0.06600
H756        H  0.36812346  0.62376030  0.30055751     0.06400
C757        C  0.12216002  0.72426938  0.02167390     0.03500
C758        C  0.09787725  0.69710163  0.05317533    -0.12700
C759        C  0.06852106  0.67299429  0.02548387     0.01000
C760        C  0.05943309  0.67943016  0.30554871    -0.11200
C761        C  0.07703510  0.71145376  0.28346090     0.03500
C762        C  0.11076160  0.73364790  0.30507203    -0.10600
H763        H  0.10528158  0.69091575  0.09363432     0.09100
H764        H  0.03626921  0.66044614  0.28424079     0.06600
H765        H  0.12745370  0.75688594  0.28364464     0.06400
C766        C  0.20974464  0.63702162  0.31159359     0.03500
C767        C  0.22666877  0.61910291  0.98791346    -0.12700
C768        C  0.21622069  0.59521752  0.03282785     0.01000
C769        C  0.18901006  0.58915068  0.06697570    -0.11200
C770        C  0.17145357  0.60544738  0.39099342     0.03500
C771        C  0.18323420  0.63037568  0.34912130    -0.10600
H772        H  0.24670595  0.62261160  0.95995358     0.09100
H773        H  0.18001600  0.56979944  0.09919399     0.06600
H774        H  0.17039389  0.64343486  0.34355211     0.06400
C775        C  0.12670724  0.92291562  0.29789214     0.03500
C776        C  0.10914874  0.89149586  0.99345829    -0.12700
C777        C  0.08367310  0.88475927  0.03527165     0.01000
C778        C  0.07862492  0.91061495  0.04886071    -0.11200
C779        C  0.09441230  0.94030816  0.01881868     0.03500
C780        C  0.11843964  0.94630519  0.31226859    -0.10600
H781        H  0.11406288  0.87233538  0.98203592     0.09100
H782        H  0.06186120  0.90803982  0.08242194     0.06600
H783        H  0.12893145  0.96877190  0.28855931     0.06400
C784        C  0.37856233  0.79229033  0.03303074     0.03500
C785        C  0.39629060  0.82621996  0.04229392    -0.12700
C786        C  0.42756721  0.84701415  0.01805401     0.01000
C787        C  0.44074544  0.83444181  0.31302693    -0.11200
C788        C  0.42554721  0.80011482  0.30414815     0.03500
C789        C  0.39324055  0.77882017  0.99752272    -0.10100
H790        H  0.38540308  0.83668918  0.06919148     0.09100
H791        H  0.46193293  0.85230099  0.28825323     0.06600
H792        H  0.37980552  0.75232183  0.32459175     0.06400
C793        C  0.27571557  0.86495402  0.29149309     0.03500
C794        C  0.25666157  0.87995484  0.30762697    -0.12700
C795        C  0.27244475  0.90888895  0.01033686     0.01000
C796        C  0.30627913  0.92155877  0.02810379    -0.11200
C797        C  0.32505082  0.90805615  0.34375490     0.03500
C798        C  0.30901871  0.87861831  0.31368626    -0.10600
H799        H  0.23095617  0.87019635  0.95776586     0.09100
H800        H  0.31870676  0.94320729  0.05531435     0.06600
H801        H  0.32354847  0.86719887  0.30427288     0.06400
O802        O  0.44222889  0.96180185  0.08939207    -0.88000
C803        C  0.50744124  0.97424236  0.28949217     0.88000
Mg804      Mg  0.42191780  0.49274860  0.09123599     1.58100
O805        O  0.04517234  0.99967514  0.09276903    -0.87700
O806        O  0.47200247  0.94422007  0.13453615    -0.75100
C807        C  0.05101088  0.63927661  0.37924365     0.93100
O808        O  0.43508581  0.98058902  0.28607786    -0.74900
O809        O  0.01888029  0.62235751  0.37497152    -0.82400
Mg810      Mg  0.43573765  0.94014593  0.33877055     1.58000
C811        C  0.13687667  0.59077863  0.08204959     0.93000
O812        O  0.42995815  0.89526360  0.04978715    -0.80600
H813        H  0.05305259  0.99266284  0.17476386    -0.06000
C814        C  0.05117377  0.56645129  0.31017838     0.87900
O815        O  0.46398409  0.52866560  0.15555174    -0.75100
O816        O  0.49293550  0.96989757  0.33672379    -0.87900
O817        O  0.11936905  0.55972574  0.08991110    -0.80700
C818        C  0.08074326  0.96201909  0.35442616     0.93100
C819        C  0.44600738  0.88222096  0.03259460     0.93000
Mg820      Mg  0.06467548  0.58219004  0.10347911     1.58000
O821        O  0.06877699  0.62722813  0.39594038    -0.80600
O822        O  0.06154582  0.53851994  0.15609080    -0.74900
O823        O  0.04930170  0.94937549  0.34355188    -0.80700
O824        O  0.37918940  0.91319195  0.34254573    -0.82400
O825        O  0.44882088  0.56977719  0.08833038    -0.80800
C826        C  0.05300036  0.50921851  0.14257304     0.87400
O827        O  0.00993162  0.55899975  0.10594680    -0.87900
O828        O  0.05735731  0.55766727  0.35655265    -0.88000
O829        O  0.02613034  0.57063406  0.30362112    -0.75100
Mg830      Mg  0.51161622  0.94940303  0.06870872     1.58000
O831        O  0.09981630  0.99275616  0.36397858    -0.82400
H832        H  0.43303312  0.94593926  0.17044240    -0.06200
O833        O  0.45409641  0.51712035  0.35301066    -0.87700
H834        H  0.44157099  0.52611979  0.27528314    -0.06000
H835        H  0.00923785  0.56450135  0.19026580    -0.06200
C836        C  0.44338387  0.50888414  0.30372463     0.87400
C837        C  0.44824315  0.95055138  0.13301667     0.88000
C838        C  0.49528210  0.55143138  0.15215141     0.88000
H839        H  0.06683789  0.56977041  0.27403287    -0.06100
O840        O  0.03952102  0.99424163  0.28614508    -0.75200
Mg841      Mg  0.48689974  0.56857807  0.36539549     1.58000
H842        H  0.49264706  0.96095059  0.25208090    -0.06200
C843        C  0.36206091  0.92629819  0.35404746     0.93000
O844        O  0.39903241  0.52466886  0.07710926    -0.82400
C845        C  0.41817360  0.55559252  0.07049778     0.93100
O846        O  0.47802543  0.89912048  0.03039223    -0.82400
Mg847      Mg  0.07865675  0.52671496  0.35777262     1.58200
O848        O  0.37598991  0.95535882  0.37401598    -0.80700
O849        O  0.12303819  0.60766952  0.08935812    -0.82400
C850        C  0.49448456  0.75254342  0.14819713    -0.02100
C851        C  0.24458739  0.49830255  0.14280243    -0.02100
C852        C  0.24645256  0.74921824  0.14315798    -0.02100
C853        C  0.25771957  0.92946711  0.02959779     0.00200
C854        C  0.27850666  0.96433729  0.02486066    -0.11700
C855        C  0.27433324  0.98595360  0.05961447     0.02400
C856        C  0.24776062  0.97404837  0.09961796     0.00100
C857        C  0.22359398  0.93906053  0.09683764    -0.11600
C858        C  0.22922122  0.91710224  0.06499671     0.02300
H859        H  0.30051607  0.97486412  0.99743931     0.15300
H860        H  0.20058170  0.92777144  0.12142532     0.15300
C861        C  0.20678826  0.88189921  0.07289582     0.36900
C862        C  0.30034059  0.52024129  0.05833071     0.36900
N863        N  0.18894912  0.85366690  0.07956516    -0.43400
N864        N  0.32152963  0.54777344  0.06142080    -0.43400
C865        C  0.26483604  0.83676052  0.24943632     0.00200
C866        C  0.23409203  0.80621191  0.25375689    -0.11700
C867        C  0.22709791  0.77838012  0.22022047     0.02400
C868        C  0.25271483  0.77883650  0.18489156     0.00100
C869        C  0.28285431  0.81072827  0.17998362    -0.11600
C870        C  0.28812798  0.83890089  0.20857028     0.02300
H871        H  0.21500487  0.80421006  0.28259329     0.15300
H872        H  0.30125317  0.81573686  0.14764974     0.15300
C873        C  0.31720707  0.87057519  0.19190422     0.36900
C874        C  0.19197427  0.75168331  0.21959239     0.36900
N875        N  0.34040719  0.89582856  0.17837382    -0.43400
N876        N  0.16314706  0.73171293  0.21985803    -0.43400
C877        C  0.34445969  0.77366845  0.06103527     0.00200
C878        C  0.31496102  0.76197526  0.02717191    -0.11700
C879        C  0.28365333  0.75492287  0.05013103     0.02400
C880        C  0.28045894  0.75879232  0.11013960     0.00100
C881        C  0.31072780  0.76979706  0.14356591    -0.11600
C882        C  0.34182641  0.77736545  0.12011334     0.02300
H883        H  0.31695545  0.76039794  0.98137931     0.15300
H884        H  0.30992492  0.77226405  0.18936479     0.15300
C885        C  0.37160334  0.79170294  0.15722441     0.36900
C886        C  0.25653745  0.74433866  0.00863648     0.36900
N887        N  0.39581957  0.80448451  0.18612891    -0.43400
N888        N  0.23549219  0.73593990  0.97369903    -0.43400
C889        C  0.44287425  0.78737769  0.26572346     0.00200
C890        C  0.42281315  0.75976583  0.23056952    -0.11700
C891        C  0.43736890  0.74938300  0.18936468     0.02400
C892        C  0.47358908  0.76181801  0.19003795     0.00100
C893        C  0.49306330  0.78898580  0.22624558    -0.11600
C894        C  0.47895473  0.80332322  0.25895314     0.02300
H895        H  0.39531404  0.74853156  0.23036892     0.15300
H896        H  0.02056786  0.80112955  0.22597194     0.15300
C897        C  0.50327995  0.83651045  0.27721573     0.36900
C898        C  0.41425271  0.73048472  0.14309024     0.36900
N899        N  0.52330203  0.86395871  0.28690759    -0.43400
N900        N  0.39510310  0.71580381  0.10636382    -0.43400
C901        C  0.01990054  0.78685562  0.11747774     0.00200
C902        C  0.00520814  0.80292742  0.08935539    -0.11700
C903        C  0.02507980  0.83586551  0.07117762     0.02400
C904        C  0.06106391  0.85107904  0.06337459     0.00100
C905        C  0.07623486  0.83567732  0.09157189    -0.11600
C906        C  0.05658081  0.80747773  0.12604985     0.02300
H907        H  0.47761622  0.79121204  0.08908322     0.15300
H908        H  0.10390211  0.84885709  0.09468896     0.15300
C909        C  0.07449314  0.80624677  0.17677145     0.36900
C910        C  0.00915533  0.85431112  0.08211818     0.36900
N911        N  0.08919738  0.80628283  0.21764904    -0.43400
N912        N  0.49610370  0.86763679  0.09912041    -0.43400
C913        C  0.21206128  0.97564525  0.18114037     0.00200
C914        C  0.18071542  0.97409501  0.17261289    -0.11700
C915        C  0.15124816  0.95188941  0.20297028     0.02400
C916        C  0.15287090  0.93392549  0.25092932     0.00100
C917        C  0.18342072  0.93433919  0.25954515    -0.11600
C918        C  0.21179824  0.95319180  0.22366529     0.02300
H919        H  0.17806280  0.98973964  0.14202648     0.15300
H920        H  0.18534312  0.92017087  0.29465299     0.15300
C921        C  0.23930882  0.94693746  0.22858600     0.36900
C922        C  0.11942646  0.94908400  0.18533384     0.36900
N923        N  0.26091936  0.94121952  0.23022936    -0.43400
N924        N  0.09396580  0.94710791  0.17229224    -0.43400
C925        C  0.24218700  0.52586420  0.10429838     0.00200
C926        C  0.21585484  0.51564994  0.06165881    -0.11700
C927        C  0.20913647  0.53860641  0.03370816     0.02400
C928        C  0.22971018  0.57276817  0.04389999     0.00100
C929        C  0.25845200  0.58376594  0.07818919    -0.11600
C930        C  0.26576185  0.56164470  0.10621352     0.02300
H931        H  0.19904912  0.48950697  0.05277983     0.15300
H932        H  0.27488362  0.61027153  0.08486010     0.15300
C933        C  0.29900439  0.57900701  0.13324596     0.36900
C934        C  0.18058319  0.52837049  0.32837010     0.36900
N935        N  0.32606484  0.59512735  0.15306668    -0.43400
N936        N  0.16007509  0.52576560  0.29561853    -0.43400
C937        C  0.23587324  0.71569945  0.18001898     0.00200
C938        C  0.20195227  0.69383135  0.19836196    -0.11700
C939        C  0.19276479  0.66608024  0.23426317     0.02400
C940        C  0.21803077  0.66203364  0.26276591     0.00100
C941        C  0.25100092  0.68120558  0.24109978    -0.11600
C942        C  0.25802199  0.70324095  0.19454730     0.02300
H943        H  0.18145631  0.69601070  0.18047862     0.15300
H944        H  0.27030342  0.67590454  0.25522667     0.15300
C945        C  0.27952135  0.70101874  0.15312612     0.36900
C946        C  0.15759264  0.63924612  0.23257718     0.36900
N947        N  0.29612144  0.69785661  0.12047515    -0.43400
N948        N  0.12963815  0.61725557  0.22965336    -0.43400
C949        C  0.15826122  0.73401928  0.03563342     0.00200
C950        C  0.18312707  0.76585666  0.05199048    -0.11700
C951        C  0.21359780  0.77196722  0.07922905     0.02400
C952        C  0.21744174  0.74502678  0.09956652     0.00100
C953        C  0.19374821  0.71369466  0.07616914    -0.11600
C954        C  0.16589604  0.70885589  0.04214982     0.02300
H955        H  0.17882496  0.78597922  0.04344242     0.15300
H956        H  0.19753472  0.69314667  0.08279206     0.15300
C957        C  0.14376056  0.67747328  0.01491963     0.36900
C958        C  0.24025357  0.80633647  0.08158568     0.36900
N959        N  0.12422262  0.65319840  0.99192559    -0.43400
N960        N  0.26062817  0.83433170  0.08153518    -0.43400
C961        C  0.01589039  0.73961042  0.18012277     0.00200
C962        C  0.00631464  0.72596791  0.23477216    -0.11700
C963        C  0.02492214  0.71540369  0.26675681     0.02400
C964        C  0.05630855  0.72088312  0.24674687     0.00100
C965        C  0.06408539  0.73028076  0.18967656    -0.11600
C966        C  0.04285884  0.73720693  0.15510326     0.02300
H967        H  0.48312770  0.72227020  0.25194745     0.15300
H968        H  0.08626133  0.73148878  0.17172278     0.15300
C969        C  0.05287812  0.74592797  0.09657858     0.36900
C970        C  0.01015828  0.69694188  0.31866213     0.36900
N971        N  0.06313210  0.75452940  0.05101845    -0.43400
N972        N  0.99951223  0.68129940  0.02649225    -0.43400
C973        C  0.46827032  0.72167058  0.11068266     0.00200
C974        C  0.44623822  0.69194528  0.14035506    -0.11700
C975        C  0.42359408  0.66211765  0.11316237     0.02400
C976        C  0.42108439  0.65991847  0.05286876     0.00100
C977        C  0.44036456  0.68979407  0.02212118    -0.11600
C978        C  0.46456694  0.72002039  0.05028195     0.02300
H979        H  0.44628904  0.69168822  0.18632957     0.15300
H980        H  0.43946673  0.68861513  0.97601631     0.15300
C981        C  0.98928396  0.74714859  0.01685368     0.36900
C982        C  0.40610242  0.63323582  0.14935643     0.36900
N983        N  0.01161147  0.76925510  0.99346363    -0.43400
N984        N  0.39366209  0.61027621  0.17893056    -0.43400
C985        C  0.27562309  0.51673477  0.18779794     0.00200
C986        C  0.30485821  0.51397791  0.18692979    -0.11700
C987        C  0.33429042  0.53388218  0.22121058     0.02400
C988        C  0.33532550  0.55657581  0.26152370     0.00100
C989        C  0.30528148  0.55737333  0.26658846    -0.11600
C990        C  0.27591973  0.53778598  0.23151331     0.02300
H991        H  0.30545314  0.49648209  0.15877832     0.15300
H992        H  0.30480187  0.57385882  0.96427481     0.15300
C993        C  0.24867958  0.54431857  0.23454945     0.36900
C994        C  0.36367991  0.53105670  0.21230150     0.36900
N995        N  0.22767268  0.05084410  0.23357604    -0.43400
N996        N  0.38716515  0.52865499  0.20548850    -0.43400
C997        C  0.40728638  0.62630873  0.35868580     0.03500
C998        C  0.42146851  0.60829105  0.38051345    -0.12700
C999        C  0.40581178  0.57448340  0.70499206     0.01000
C1000       C  0.37903958  0.55899702  0.66477262    -0.11200
C1001       C  0.36589496  0.57641120  0.63554748     0.03500
C1002       C  0.37943274  0.61034952  0.31824898    -0.10600
H1003       H  0.44328900  0.62023403  0.40964048     0.09100
H1004       H  0.36722278  0.53262799  0.65813886     0.06600
H1005       H  0.36812344  0.62376007  0.63389139     0.06400
C1006       C  0.12215976  0.72426959  0.35500744     0.03500
C1007       C  0.09787697  0.69710186  0.38650885    -0.12700
C1008       C  0.06852074  0.67299460  0.35881737     0.01000
C1009       C  0.05943308  0.67942977  0.63887997    -0.11200
C1010       C  0.07703498  0.71145352  0.61679278     0.03500
C1011       C  0.11076133  0.73364775  0.63840450    -0.10600
H1012       H  0.10528130  0.69091590  0.42696777     0.09100
H1013       H  0.03626931  0.66044579  0.61757174     0.06600
H1014       H  0.12745338  0.75688600  0.61697763     0.06400
C1015       C  0.20974455  0.63702150  0.64492722     0.03500
C1016       C  0.22666895  0.61910316  0.32124720    -0.12700
C1017       C  0.21622066  0.59521762  0.36616135     0.01000
C1018       C  0.18901011  0.58915094  0.40030926    -0.11200
C1019       C  0.17145340  0.60544708  0.72432685     0.03500
C1020       C  0.18323389  0.63037529  0.68245460    -0.10600
H1021       H  0.24670607  0.62261176  0.29328725     0.09100
H1022       H  0.18001590  0.56979961  0.43252740     0.06600
H1023       H  0.17039328  0.64343416  0.67688507     0.06400
C1024       C  0.12670734  0.92291533  0.63122600     0.03500
C1025       C  0.10914838  0.89149582  0.32679160    -0.12700
C1026       C  0.08367302  0.88475946  0.36860537     0.01000
C1027       C  0.07862523  0.91061535  0.38219476    -0.11200
C1028       C  0.09441250  0.94030847  0.35215239     0.03500
C1029       C  0.11843973  0.94630483  0.64560300    -0.10600
H1030       H  0.11406229  0.87233521  0.31536909     0.09100
H1031       H  0.06186181  0.90804042  0.41575637     0.06600
H1032       H  0.12893178  0.96877177  0.62189438     0.06400
C1033       C  0.37856202  0.79229084  0.36636415     0.03500
C1034       C  0.39629054  0.82622040  0.37562818    -0.12700
C1035       C  0.42756729  0.84701460  0.35138869     0.01000
C1036       C  0.44074542  0.83444141  0.64636111    -0.11200
C1037       C  0.42554718  0.80011444  0.63748205     0.03500
C1038       C  0.39324016  0.77882075  0.33085574    -0.10100
H1039       H  0.38540310  0.83668958  0.40252606     0.09100
H1040       H  0.46193303  0.85230066  0.62158772     0.06600
H1041       H  0.37980549  0.75232140  0.65792538     0.06400
C1042       C  0.27571494  0.86495363  0.62482724     0.03500
C1043       C  0.25666122  0.87995481  0.64096074    -0.12700
C1044       C  0.27244463  0.90888845  0.34367153     0.01000
C1045       C  0.30627896  0.92155820  0.36143873    -0.11200
C1046       C  0.32505027  0.90805545  0.67708933     0.03500
C1047       C  0.30901795  0.87861757  0.64702084    -0.10600
H1048       H  0.23095620  0.87019606  0.29110003     0.09100
H1049       H  0.31870649  0.94320659  0.38864961     0.06600
H1050       H  0.32354751  0.86719788  0.63760770     0.06400
O1051       O  0.44222904  0.96180227  0.42272635    -0.88000
C1052       C  0.50744079  0.97424133  0.62282596     0.88000
Mg1053     Mg  0.42191784  0.49274893  0.42456946     1.58100
O1054       O  0.04517269  0.99967568  0.42610295    -0.87700
O1055       O  0.47200298  0.94422095  0.46787069    -0.75100
C1056       C  0.05101069  0.63927593  0.71257467     0.93100
O1057       O  0.43508515  0.98058790  0.61941124    -0.74900
O1058       O  0.01888010  0.62235678  0.70830238    -0.82400
Mg1059     Mg  0.43573714  0.94014506  0.67210440     1.58000
C1060       C  0.13687688  0.59077918  0.41538310     0.93000
O1061       O  0.42995864  0.89526404  0.38312308    -0.80600
H1062       H  0.05305319  0.99266365  0.50809778    -0.06000
C1063       C  0.05117335  0.56645020  0.64351085     0.87900
O1064       O  0.46398411  0.52866620  0.48888504    -0.75100
O1065       O  0.49293506  0.96989674  0.67005753    -0.87900
O1066       O  0.11936927  0.55972628  0.42324464    -0.80700
C1067       C  0.08074294  0.96201829  0.68776031     0.93100
C1068       C  0.44600766  0.88222134  0.36592991     0.93000
Mg1069     Mg  0.06467559  0.58219051  0.43681244     1.58000
O1070       O  0.06877679  0.62722752  0.72927186    -0.80600
O1071       O  0.06154615  0.53852062  0.48942443    -0.74900
O1072       O  0.04930133  0.94937462  0.67688631    -0.80700
O1073       O  0.37918880  0.91319107  0.67587970    -0.82400
O1074       O  0.44882082  0.56977745  0.42166309    -0.80800
C1075       C  0.05300079  0.50921919  0.47590689     0.87400
O1076       O  0.00993166  0.55900009  0.43928007    -0.87900
O1077       O  0.05735703  0.55766651  0.68988534    -0.88000
O1078       O  0.02612981  0.57063280  0.63695334    -0.75100
Mg1079     Mg  0.51161655  0.94940353  0.40204316     1.58000
O1080       O  0.09981597  0.99275538  0.69731246    -0.82400
H1081       H  0.43303377  0.94594033  0.50377708    -0.06200
O1082       O  0.45409593  0.51711943  0.68634365    -0.87700
H1083       H  0.44157021  0.52611862  0.60861618    -0.06000
H1084       H  0.00923785  0.56450204  0.52359895    -0.06200
C1085       C  0.44338319  0.50888306  0.63705775     0.87400
C1086       C  0.44824360  0.95055219  0.46635118     0.88000
C1087       C  0.49528213  0.55143193  0.48548465     0.88000
H1088       H  0.06683742  0.56976915  0.60736536    -0.06100
O1089       O  0.03952059  0.99424053  0.61947878    -0.75200
Mg1090     Mg  0.48689938  0.56857719  0.69872759     1.58000
H1091       H  0.49264659  0.96094943  0.58541480    -0.06200
C1092       C  0.36206039  0.92629736  0.68738168     0.93000
O1093       O  0.39903239  0.52466910  0.41044194    -0.82400
C1094       C  0.41817358  0.55559274  0.40383029     0.93100
O1095       O  0.47802570  0.89912081  0.36372716    -0.82400
Mg1096     Mg  0.07865643  0.52671421  0.69110591     1.58200
O1097       O  0.37598950  0.95535798  0.70735023    -0.80700
O1098       O  0.12303835  0.60767004  0.42269141    -0.82400
C1099       C  0.49448411  0.75254325  0.48152998    -0.02100
C1100       C  0.24458725  0.49830249  0.47613566    -0.02100
C1101       C  0.24645206  0.74921808  0.47649168    -0.02100
C1102       C  0.25771946  0.92946667  0.36293212     0.00200
C1103       C  0.27850663  0.96433683  0.35819478    -0.11700
C1104       C  0.27433316  0.98595327  0.39294812     0.02400
C1105       C  0.24776045  0.97404820  0.43295142     0.00100
C1106       C  0.22359373  0.93906036  0.43017123    -0.11600
C1107       C  0.22922098  0.91710194  0.39833073     0.02300
H1108       H  0.30051613  0.97486354  0.33077366     0.15300
H1109       H  0.20058137  0.92777140  0.45475870     0.15300
C1110       C  0.20678787  0.88189895  0.40622992     0.36900
C1111       C  0.30034065  0.52024094  0.39166424     0.36900
N1112       N  0.18894856  0.85366666  0.41289936    -0.43400
N1113       N  0.32152991  0.54777301  0.39475426    -0.43400
C1114       C  0.26483538  0.83676025  0.58277020     0.00200
C1115       C  0.23409129  0.80621166  0.58709046    -0.11700
C1116       C  0.22709725  0.77837988  0.55355406     0.02400
C1117       C  0.25271425  0.77883629  0.51822533     0.00100
C1118       C  0.28285376  0.81072805  0.51331765    -0.11600
C1119       C  0.28812744  0.83890063  0.54190442     0.02300
H1120       H  0.21500406  0.80420979  0.61592673     0.15300
H1121       H  0.30125273  0.81573669  0.48098396     0.15300
C1122       C  0.31720685  0.87057487  0.52523901     0.36900
C1123       C  0.19197367  0.75168294  0.55292598     0.36900
N1124       N  0.34040729  0.89582817  0.51170922    -0.43400
N1125       N  0.16314651  0.73171240  0.55319157    -0.43400
C1126       C  0.34445931  0.77366893  0.39436850     0.00200
C1127       C  0.31496066  0.76197597  0.36050514    -0.11700
C1128       C  0.28365291  0.75492329  0.38346445     0.02400
C1129       C  0.28045846  0.75879233  0.44347317     0.00100
C1130       C  0.31072733  0.76979700  0.47689939    -0.11600
C1131       C  0.34182596  0.77736554  0.45344670     0.02300
H1132       H  0.31695513  0.76039897  0.31471246     0.15300
H1133       H  0.30992442  0.77226377  0.52269832     0.15300
C1134       C  0.37160281  0.79170264  0.49055792     0.36900
C1135       C  0.25653701  0.74433919  0.34196997     0.36900
N1136       N  0.39581896  0.80448386  0.51946263    -0.43400
N1137       N  0.23549168  0.73594050  0.30703266    -0.43400
C1138       C  0.44287416  0.78737736  0.59905720     0.00200
C1139       C  0.42281295  0.75976557  0.56390318    -0.11700
C1140       C  0.43736858  0.74938279  0.52269808     0.02400
C1141       C  0.47358874  0.76181770  0.52337123     0.00100
C1142       C  0.49306306  0.78898530  0.55957917    -0.11600
C1143       C  0.47895462  0.80332281  0.59228680     0.02300
H1144       H  0.39531386  0.74853136  0.56370268     0.15300
H1145       H  0.02056759  0.80112894  0.55930548     0.15300
C1146       C  0.50327993  0.83651010  0.61054896     0.36900
C1147       C  0.41425231  0.73048470  0.47642360     0.36900
N1148       N  0.52330211  0.86395839  0.62024045    -0.43400
N1149       N  0.39510261  0.71580395  0.43969719    -0.43400
C1150       C  0.01990009  0.78685563  0.45081089     0.00200
C1151       C  0.00520780  0.80292778  0.42268930    -0.11700
C1152       C  0.02507965  0.83586597  0.40451195     0.02400
C1153       C  0.06106369  0.85107923  0.39670832     0.00100
C1154       C  0.07623449  0.83567718  0.42490490    -0.11600
C1155       C  0.05658039  0.80747758  0.45938280     0.02300
H1156       H  0.47761593  0.79121264  0.42241755     0.15300
H1157       H  0.10390173  0.84885673  0.42802164     0.15300
C1158       C  0.07449273  0.80624655  0.51010431     0.36900
C1159       C  0.00915563  0.85431191  0.41545354     0.36900
N1160       N  0.08919700  0.80628256  0.55098183    -0.43400
N1161       N  0.49610457  0.86763799  0.43245652    -0.43400
C1162       C  0.21206126  0.97564525  0.51447391     0.00200
C1163       C  0.18071543  0.97409514  0.50594685    -0.11700
C1164       C  0.15124823  0.95188957  0.53630440     0.02400
C1165       C  0.15287100  0.93392545  0.58426312     0.00100
C1166       C  0.18342080  0.93433911  0.59287865    -0.11600
C1167       C  0.21179828  0.95319180  0.55699875     0.02300
H1168       H  0.17806283  0.98973989  0.47536068     0.15300
H1169       H  0.18534324  0.92017072  0.62798633     0.15300
C1170       C  0.23930897  0.94693761  0.56191955     0.36900
C1171       C  0.11942657  0.94908440  0.51866843     0.36900
N1172       N  0.26091961  0.94121980  0.56356313    -0.43400
N1173       N  0.09396595  0.94710850  0.50562721    -0.43400
C1174       C  0.24218682  0.52586408  0.43763145     0.00200
C1175       C  0.21585445  0.51564980  0.39499226    -0.11700
C1176       C  0.20913606  0.53860631  0.36704177     0.02400
C1177       C  0.22970997  0.57276810  0.37723331     0.00100
C1178       C  0.25845199  0.58376582  0.41152195    -0.11600
C1179       C  0.26576181  0.56164455  0.43954621     0.02300
H1180       H  0.19904859  0.48950682  0.38611352     0.15300
H1181       H  0.27488378  0.61027143  0.41819258     0.15300
C1182       C  0.29900443  0.57900680  0.46657833     0.36900
C1183       C  0.18058364  0.52837070  0.66170434     0.36900
N1184       N  0.32606493  0.59512709  0.48639884    -0.43400
N1185       N  0.16007533  0.52576555  0.62895301    -0.43400
C1186       C  0.23587283  0.71569927  0.51335260     0.00200
C1187       C  0.20195183  0.69383093  0.53169538    -0.11700
C1188       C  0.19276449  0.66607976  0.56759642     0.02400
C1189       C  0.21803058  0.66203346  0.59609948     0.00100
C1190       C  0.25100078  0.68120569  0.57443367    -0.11600
C1191       C  0.25802176  0.70324101  0.52788114     0.02300
H1192       H  0.18145578  0.69601016  0.51381207     0.15300
H1193       H  0.27030341  0.67590488  0.58856079     0.15300
C1194       C  0.27952119  0.70101886  0.48646004     0.36900
C1195       C  0.15759249  0.63924532  0.56590997     0.36900
N1196       N  0.29612138  0.69785683  0.45380914    -0.43400
N1197       N  0.12963815  0.61725450  0.56298594    -0.43400
C1198       C  0.15826092  0.73401937  0.36896691     0.00200
C1199       C  0.18312686  0.76585673  0.38532395    -0.11700
C1200       C  0.21359752  0.77196715  0.41256260     0.02400
C1201       C  0.21744124  0.74502663  0.43290029     0.00100
C1202       C  0.19374770  0.71369455  0.40950285    -0.11600
C1203       C  0.16589562  0.70885589  0.37548339     0.02300
H1204       H  0.17882490  0.78597937  0.37677575     0.15300
H1205       H  0.19753414  0.69314653  0.41612577     0.15300
C1206       C  0.14376017  0.67747331  0.34825304     0.36900
C1207       C  0.24025353  0.80633631  0.41491894     0.36900
N1208       N  0.12422241  0.65319840  0.32525890    -0.43400
N1209       N  0.26062842  0.83433146  0.41486828    -0.43400
C1210       C  0.01588995  0.73961013  0.51345526     0.00200
C1211       C  0.00631422  0.72596739  0.56810454    -0.11700
C1212       C  0.02492185  0.71540322  0.60008897     0.02400
C1213       C  0.05630834  0.72088290  0.58007894     0.00100
C1214       C  0.06408513  0.73028069  0.52300866    -0.11600
C1215       C  0.04285848  0.73720682  0.48843555     0.02300
H1216       H  0.48312727  0.72226956  0.58528006     0.15300
H1217       H  0.08626113  0.73148889  0.50505476     0.15300
C1218       C  0.05287781  0.74592817  0.42991096     0.36900
C1219       C  0.01015806  0.69694120  0.65199413     0.36900
N1220       N  0.06313185  0.75452993  0.38435095    -0.43400
N1221       N  0.99951173  0.68129979  0.35982558    -0.43400
C1222       C  0.46826975  0.72167051  0.44401538     0.00200
C1223       C  0.44623769  0.69194511  0.47368759    -0.11700
C1224       C  0.42359361  0.66211750  0.44649472     0.02400
C1225       C  0.42108390  0.65991845  0.38620109     0.00100
C1226       C  0.44036392  0.68979418  0.35545371    -0.11600
C1227       C  0.46456622  0.72002048  0.38361471     0.02300
H1228       H  0.44628854  0.69168793  0.51966209     0.15300
H1229       H  0.43946607  0.68861539  0.30934883     0.15300
C1230       C  0.98928310  0.74714890  0.35018668     0.36900
C1231       C  0.40610212  0.63323557  0.48268861     0.36900
N1232       N  0.01161059  0.76925557  0.32679693    -0.43400
N1233       N  0.39366197  0.61027590  0.51226260    -0.43400
C1234       C  0.27562297  0.51673479  0.52113107     0.00200
C1235       C  0.30485800  0.51397777  0.52026309    -0.11700
C1236       C  0.33429021  0.53388198  0.55454384     0.02400
C1237       C  0.33532540  0.55657570  0.59485687     0.00100
C1238       C  0.30528148  0.55737343  0.59992144    -0.11600
C1239       C  0.27591972  0.53778616  0.56484625     0.02300
H1240       H  0.30545282  0.49648180  0.49211186     0.15300
H1241       H  0.30480121  0.57385799  0.29760825     0.15300
C1242       C  0.24867961  0.54431880  0.56788239     0.36900
C1243       C  0.36367957  0.53105625  0.54563487     0.36900
N1244       N  0.22767276  0.05084439  0.56690913    -0.43400
N1245       N  0.38716466  0.52865430  0.53882191    -0.43400
C1246       C  0.40728619  0.62630816  0.69201971     0.03500
C1247       C  0.42146827  0.60829039  0.71384696    -0.12700
C1248       C  0.40581206  0.57448384  0.03832671     0.01000
C1249       C  0.37903991  0.55899747  0.99810714    -0.11200
C1250       C  0.36589544  0.57641167  0.96888165     0.03500
C1251       C  0.37943262  0.61034917  0.65158269    -0.10600
H1252       H  0.44328881  0.62023327  0.74297392     0.09100
H1253       H  0.36722308  0.53262843  0.99147342     0.06600
H1254       H  0.36812414  0.62376063  0.96722487     0.06400
C1255       C  0.12215943  0.72426927  0.68833980     0.03500
C1256       C  0.09787662  0.69710121  0.71984058    -0.12700
C1257       C  0.06852060  0.67299398  0.69214858     0.01000
C1258       C  0.05943349  0.67942970  0.97221500    -0.11200
C1259       C  0.07703542  0.71145327  0.95012706     0.03500
C1260       C  0.11076183  0.73364757  0.97173836    -0.10600
H1261       H  0.10528084  0.69091511  0.76029947     0.09100
H1262       H  0.03626964  0.66044561  0.95090710     0.06600
H1263       H  0.12745387  0.75688563  0.95031099     0.06400
C1264       C  0.20974418  0.63702110  0.97825955     0.03500
C1265       C  0.22666916  0.61910335  0.65458123    -0.12700
C1266       C  0.21622094  0.59521786  0.69949545     0.01000
C1267       C  0.18901021  0.58915095  0.73364311    -0.11200
C1268       C  0.17145329  0.60544685  0.05765963     0.03500
C1269       C  0.18323368  0.63037498  0.01578722    -0.10600
H1270       H  0.24670642  0.62261213  0.62662147     0.09100
H1271       H  0.18001606  0.56979964  0.76586129     0.06600
H1272       H  0.17039317  0.64343393  0.01021789     0.06400
C1273       C  0.12670761  0.92291574  0.96455906     0.03500
C1274       C  0.10914843  0.89149536  0.66012494    -0.12700
C1275       C  0.08367293  0.88475872  0.70193862     0.01000
C1276       C  0.07862489  0.91061442  0.71552819    -0.11200
C1277       C  0.09441225  0.94030773  0.68548637     0.03500
C1278       C  0.11843983  0.94630517  0.97893554    -0.10600
H1279       H  0.11406245  0.87233486  0.64870215     0.09100
H1280       H  0.06186128  0.90803924  0.74908966     0.06600
H1281       H  0.12893176  0.96877200  0.95522665     0.06400
C1282       C  0.37856186  0.79229031  0.69969781     0.03500
C1283       C  0.39629029  0.82621985  0.70896196    -0.12700
C1284       C  0.42756711  0.84701409  0.68472277     0.01000
C1285       C  0.44074548  0.83444125  0.97969271    -0.11200
C1286       C  0.42554744  0.80011422  0.97081469     0.03500
C1287       C  0.39324009  0.77882030  0.66418947    -0.10100
H1288       H  0.38540274  0.83668895  0.73585975     0.09100
H1289       H  0.46193292  0.85230035  0.95491879     0.06600
H1290       H  0.37980608  0.75232121  0.99125931     0.06400
C1291       C  0.27571549  0.86495420  0.95815908     0.03500
C1292       C  0.25666158  0.87995518  0.97429267    -0.12700
C1293       C  0.27244442  0.90888838  0.67700542     0.01000
C1294       C  0.30627863  0.92155778  0.69477296    -0.11200
C1295       C  0.32505084  0.90805648  0.01042039     0.03500
C1296       C  0.30901859  0.87861847  0.98035232    -0.10600
H1297       H  0.23095597  0.87019634  0.62443344     0.09100
H1298       H  0.31870628  0.94320616  0.72198386     0.06600
H1299       H  0.32354823  0.86719883  0.97093943     0.06400
O1300       O  0.44222868  0.96180166  0.75606003    -0.88000
C1301       C  0.50744120  0.97424224  0.95615797     0.88000
Mg1302     Mg  0.42191758  0.49274837  0.75790285     1.58100
O1303       O  0.04517241  0.99967522  0.75943654    -0.87700
O1304       O  0.47200272  0.94422059  0.80120471    -0.75100
C1305       C  0.05101109  0.63927636  0.04591048     0.93100
O1306       O  0.43508601  0.98058939  0.95274388    -0.74900
O1307       O  0.01888048  0.62235739  0.04163866    -0.82400
Mg1308     Mg  0.43573756  0.94014594  0.00543577     1.58000
C1309       C  0.13687662  0.59077870  0.74871613     0.93000
O1310       O  0.42995829  0.89526341  0.71645739    -0.80600
H1311       H  0.05305294  0.99266350  0.84143150    -0.06000
C1312       C  0.05117362  0.56645102  0.97684497     0.87900
O1313       O  0.46398404  0.52866592  0.82221783    -0.75100
O1314       O  0.49293538  0.96989734  0.00338951    -0.87900
O1315       O  0.11936911  0.55972578  0.75657762    -0.80700
C1316       C  0.08074305  0.96201877  0.02109223     0.93100
C1317       C  0.44600739  0.88222078  0.69926425     0.93000
Mg1318     Mg  0.06467529  0.58219004  0.77014477     1.58000
O1319       O  0.06877711  0.62722777  0.06260710    -0.80600
O1320       O  0.06154587  0.53852038  0.82275747    -0.74900
O1321       O  0.04930153  0.94937523  0.01021758    -0.80700
O1322       O  0.37918935  0.91319220  0.00921047    -0.82400
O1323       O  0.44882072  0.56977686  0.75499538    -0.80800
C1324       C  0.05300053  0.50921891  0.80924028     0.87400
O1325       O  0.00993144  0.55899964  0.77261243    -0.87900
O1326       O  0.05735714  0.55766692  0.02321917    -0.88000
O1327       O  0.02613025  0.57063390  0.97028783    -0.75100
Mg1328     Mg  0.51161625  0.94940299  0.73537729     1.58000
O1329       O  0.09981609  0.99275583  0.03064467    -0.82400
H1330       H  0.43303345  0.94593995  0.83711088    -0.06200
O1331       O  0.45409632  0.51712028  0.01967728    -0.87700
H1332       H  0.44157106  0.52612014  0.94194998    -0.06000
H1333       H  0.00923786  0.56450190  0.85693128    -0.06200
C1334       C  0.44338388  0.50888434  0.97039114     0.87400
C1335       C  0.44824329  0.95055174  0.79968501     0.88000
C1336       C  0.49528203  0.55143166  0.81881711     0.88000
H1337       H  0.06683769  0.56977011  0.94069941    -0.06100
O1338       O  0.03952099  0.99424151  0.95281108    -0.75200
Mg1339     Mg  0.48689973  0.56857791  0.03206244     1.58000
H1340       H  0.49264709  0.96095057  0.91874659    -0.06200
C1341       C  0.36206091  0.92629836  0.02071304     0.93000
O1342       O  0.39903216  0.52466851  0.74377501    -0.82400
C1343       C  0.41817339  0.55559212  0.73716304     0.93100
O1344       O  0.47802543  0.89912027  0.69706172    -0.82400
Mg1345     Mg  0.07865657  0.52671462  0.02443890     1.58200
O1346       O  0.37598991  0.95535874  0.04068260    -0.80700
O1347       O  0.12303795  0.60766947  0.75602403    -0.82400
C1348       C  0.49448448  0.75254262  0.81486368    -0.02100
C1349       C  0.24458786  0.49830298  0.80946958    -0.02100
C1350       C  0.24645194  0.74921800  0.80982455    -0.02100
C1351       C  0.25771954  0.92946688  0.69626587     0.00200
C1352       C  0.27850702  0.96433704  0.69152879    -0.11700
C1353       C  0.27433367  0.98595357  0.72628211     0.02400
C1354       C  0.24776091  0.97404861  0.76628526     0.00100
C1355       C  0.22359390  0.93906085  0.76350466    -0.11600
C1356       C  0.22922095  0.91710231  0.73166414     0.02300
H1357       H  0.30051658  0.97486363  0.66410782     0.15300
H1358       H  0.20058141  0.92777202  0.78809182     0.15300
C1359       C  0.20678746  0.88189934  0.73956299     0.36900
C1360       C  0.30034115  0.52024124  0.72499814     0.36900
N1361       N  0.18894783  0.85366708  0.74623216    -0.43400
N1362       N  0.32153026  0.54777337  0.72808803    -0.43400
C1363       C  0.26483593  0.83676055  0.91610263     0.00200
C1364       C  0.23409190  0.80621196  0.92042347    -0.11700
C1365       C  0.22709771  0.77838002  0.88688745     0.02400
C1366       C  0.25271447  0.77883628  0.85155830     0.00100
C1367       C  0.28285402  0.81072800  0.84665022    -0.11600
C1368       C  0.28812788  0.83890071  0.87523679     0.02300
H1369       H  0.21500479  0.80421023  0.94925988     0.15300
H1370       H  0.30125284  0.81573649  0.81431630     0.15300
C1371       C  0.31720725  0.87057486  0.85857086     0.36900
C1372       C  0.19197414  0.75168309  0.88625995     0.36900
N1373       N  0.34040765  0.89582808  0.84504062    -0.43400
N1374       N  0.16314698  0.73171259  0.88652599    -0.43400
C1375       C  0.34445911  0.77366834  0.72770192     0.00200
C1376       C  0.31496056  0.76197557  0.69383837    -0.11700
C1377       C  0.28365283  0.75492309  0.71679749     0.02400
C1378       C  0.28045831  0.75879207  0.77680617     0.00100
C1379       C  0.31072706  0.76979644  0.81023262    -0.11600
C1380       C  0.34182567  0.77736484  0.78678011     0.02300
H1381       H  0.31695511  0.76039863  0.64804570     0.15300
H1382       H  0.30992407  0.77226315  0.85603155     0.15300
C1383       C  0.37160247  0.79170186  0.82389147     0.36900
C1384       C  0.25653703  0.74433917  0.67530292     0.36900
N1385       N  0.39581859  0.80448303  0.85279626    -0.43400
N1386       N  0.23549177  0.73594058  0.64036552    -0.43400
C1387       C  0.44287443  0.78737700  0.93239019     0.00200
C1388       C  0.42281324  0.75976502  0.89723658    -0.11700
C1389       C  0.43736887  0.74938209  0.85603172     0.02400
C1390       C  0.47358907  0.76181716  0.85670472     0.00100
C1391       C  0.49306337  0.78898496  0.89291231    -0.11600
C1392       C  0.47895488  0.80332252  0.92561968     0.02300
H1393       H  0.39531413  0.74853072  0.89703621     0.15300
H1394       H  0.02056793  0.80112871  0.89263852     0.15300
C1395       C  0.50328010  0.83650991  0.94388155     0.36900
C1396       C  0.41425249  0.73048362  0.80975762     0.36900
N1397       N  0.52330219  0.86395825  0.95357282    -0.43400
N1398       N  0.39510269  0.71580255  0.77303152    -0.43400
C1399       C  0.01990041  0.78685487  0.78414430     0.00200
C1400       C  0.00520800  0.80292679  0.75602239    -0.11700
C1401       C  0.02507966  0.83586491  0.73784474     0.02400
C1402       C  0.06106375  0.85107840  0.73004137     0.00100
C1403       C  0.07623470  0.83567656  0.75823822    -0.11600
C1404       C  0.05658071  0.80747694  0.79271616     0.02300
H1405       H  0.47761609  0.79121149  0.75575051     0.15300
H1406       H  0.10390195  0.84885628  0.76135509     0.15300
C1407       C  0.07449311  0.80624598  0.84343765     0.36900
C1408       C  0.00915531  0.85431056  0.74878595     0.36900
N1409       N  0.08919739  0.80628203  0.88431518    -0.43400
N1410       N  0.49610383  0.86763626  0.76578876    -0.43400
C1411       C  0.21206181  0.97564576  0.84780769     0.00200
C1412       C  0.18071606  0.97409576  0.83928057    -0.11700
C1413       C  0.15124874  0.95189001  0.86963763     0.02400
C1414       C  0.15287138  0.93392583  0.91759638     0.00100
C1415       C  0.18342114  0.93433940  0.92621203    -0.11600
C1416       C  0.21179868  0.95319209  0.89033222     0.02300
H1417       H  0.17806356  0.98974066  0.80869459     0.15300
H1418       H  0.18534346  0.92017087  0.96131957     0.15300
C1419       C  0.23930911  0.94693752  0.89525233     0.36900
C1420       C  0.11942708  0.94908466  0.85200107     0.36900
N1421       N  0.26091953  0.94121939  0.89689505    -0.43400
N1422       N  0.09396646  0.94710860  0.83895932    -0.43400
C1423       C  0.24218749  0.52586458  0.77096539     0.00200
C1424       C  0.21585514  0.51565026  0.72832620    -0.11700
C1425       C  0.20913663  0.53860669  0.70037581     0.02400
C1426       C  0.22971041  0.57276848  0.71056746     0.00100
C1427       C  0.25845246  0.58376629  0.74485611    -0.11600
C1428       C  0.26576244  0.56164507  0.77288020     0.02300
H1429       H  0.19904932  0.48950727  0.71944749     0.15300
H1430       H  0.27488417  0.61027189  0.75152681     0.15300
C1431       C  0.29900510  0.57900734  0.79991221     0.36900
C1432       C  0.18058373  0.52837055  0.99503617     0.36900
N1433       N  0.32606564  0.59512762  0.81973263    -0.43400
N1434       N  0.16007571  0.52576565  0.96228443    -0.43400
C1435       C  0.23587256  0.71569908  0.84668524     0.00200
C1436       C  0.20195160  0.69383092  0.86502822    -0.11700
C1437       C  0.19276416  0.66607974  0.90092927     0.02400
C1438       C  0.21803018  0.66203308  0.92943180     0.00100
C1439       C  0.25100027  0.68120500  0.90776539    -0.11600
C1440       C  0.25802123  0.70324041  0.86121301     0.02300
H1441       H  0.18145563  0.69601031  0.84714495     0.15300
H1442       H  0.27030278  0.67590391  0.92189193     0.15300
C1443       C  0.27952021  0.70101800  0.81979126     0.36900
C1444       C  0.15759201  0.63924561  0.89924328     0.36900
N1445       N  0.29612000  0.69785577  0.78713979    -0.43400
N1446       N  0.12963752  0.61725508  0.89631947    -0.43400
C1447       C  0.15826064  0.73401928  0.70229976     0.00200
C1448       C  0.18312627  0.76585659  0.71865764    -0.11700
C1449       C  0.21359697  0.77196714  0.74589637     0.02400
C1450       C  0.21744109  0.74502669  0.76623324     0.00100
C1451       C  0.19374772  0.71369468  0.74283534    -0.11600
C1452       C  0.16589565  0.70885600  0.70881577     0.02300
H1453       H  0.17882404  0.78597910  0.71010999     0.15300
H1454       H  0.19753432  0.69314673  0.74945796     0.15300
C1455       C  0.14376049  0.67747356  0.68158479     0.36900
C1456       C  0.24025255  0.80633644  0.74825361     0.36900
N1457       N  0.12422281  0.65319880  0.65859018    -0.43400
N1458       N  0.26062696  0.83433172  0.74820360    -0.43400
C1459       C  0.01589037  0.73960963  0.84678916     0.00200
C1460       C  0.00631479  0.72596724  0.90143867    -0.11700
C1461       C  0.02492240  0.71540311  0.93342322     0.02400
C1462       C  0.05630875  0.72088252  0.91341305     0.00100
C1463       C  0.06408542  0.73028003  0.85634263    -0.11600
C1464       C  0.04285876  0.73720612  0.82176946     0.02300
H1465       H  0.48312790  0.72226957  0.91861416     0.15300
H1466       H  0.08626133  0.73148805  0.83838870     0.15300
C1467       C  0.05287788  0.74592716  0.76324472     0.36900
C1468       C  0.01015870  0.69694141  0.98532870     0.36900
N1469       N  0.06313168  0.75452866  0.71768451    -0.43400
N1470       N  0.99951157  0.68129894  0.69315743    -0.43400
C1471       C  0.46827015  0.72166982  0.77734922     0.00200
C1472       C  0.44623825  0.69194444  0.80702158    -0.11700
C1473       C  0.42359397  0.66211686  0.77982884     0.02400
C1474       C  0.42108391  0.65991783  0.71953520     0.00100
C1475       C  0.44036390  0.68979352  0.68878774    -0.11600
C1476       C  0.46456640  0.72001976  0.71694855     0.02300
H1477       H  0.44628935  0.69168727  0.85299610     0.15300
H1478       H  0.43946588  0.68861471  0.64268284     0.15300
C1479       C  0.98928317  0.74714804  0.68352018     0.36900
C1480       C  0.40610264  0.63323496  0.81602283     0.36900
N1481       N  0.01161054  0.76925461  0.66013003    -0.43400
N1482       N  0.39366261  0.61027534  0.84559694    -0.43400
C1483       C  0.27562355  0.51673524  0.85446507     0.00200
C1484       C  0.30485855  0.51397817  0.85359723    -0.11700
C1485       C  0.33429075  0.53388241  0.88787803     0.02400
C1486       C  0.33532593  0.55657617  0.92819093     0.00100
C1487       C  0.30528205  0.55737399  0.93325527    -0.11600
C1488       C  0.27592031  0.53778668  0.89818010     0.02300
H1489       H  0.30545338  0.49648221  0.82544599     0.15300
H1490       H  0.30480128  0.57385816  0.63094117     0.15300
C1491       C  0.24868029  0.54431949  0.90121593     0.36900
C1492       C  0.36368017  0.53105679  0.87896907     0.36900
N1493       N  0.22767354  0.05084521  0.90024225    -0.43400
N1494       N  0.38716537  0.52865500  0.87215602    -0.43400
C1495       C  0.90727711  0.12631768  0.02535678     0.03500
C1496       C  0.92145919  0.10829961  0.04718216    -0.12700
C1497       C  0.90580557  0.07449391  0.37165125     0.01000
C1498       C  0.87903369  0.05900856  0.33143091    -0.11200
C1499       C  0.86588618  0.07642200  0.30221162     0.03500
C1500       C  0.87942326  0.11035949  0.98491921    -0.10600
H1501       H  0.94327906  0.12024151  0.07631064     0.09100
H1502       H  0.86721876  0.03264012  0.32479300     0.06600
H1503       H  0.86811305  0.12377029  0.30056311     0.06400
C1504       C  0.62216496  0.22427902  0.02168680     0.03500
C1505       C  0.59788199  0.19711006  0.05318725    -0.12700
C1506       C  0.56852627  0.17300245  0.02549392     0.01000
C1507       C  0.55943932  0.17943863  0.30555883    -0.11200
C1508       C  0.57703947  0.21146234  0.28347371     0.03500
C1509       C  0.61076589  0.23365741  0.30508521    -0.10600
H1510       H  0.60528631  0.19092337  0.09364541     0.09100
H1511       H  0.53627704  0.16045402  0.28424794     0.06600
H1512       H  0.62745756  0.25689557  0.28365783     0.06400
C1513       C  0.70974151  0.13702803  0.31161118     0.03500
C1514       C  0.72666349  0.11910768  0.98792351    -0.12700
C1515       C  0.71621203  0.09521790  0.03282859     0.01000
C1516       C  0.68900104  0.08914843  0.06697732    -0.11200
C1517       C  0.67144718  0.10544818  0.39100353     0.03500
C1518       C  0.68323065  0.13038080  0.34913897    -0.10600
H1519       H  0.74670110  0.12261770  0.95996336     0.09100
H1520       H  0.68000536  0.06979383  0.09918961     0.06600
H1521       H  0.67039133  0.14344121  0.34357359     0.06400
C1522       C  0.62671609  0.42291798  0.29790767     0.03500
C1523       C  0.60915731  0.39149878  0.99347443    -0.12700
C1524       C  0.58368075  0.38476270  0.03528521     0.01000
C1525       C  0.57863190  0.41061830  0.04887181    -0.11200
C1526       C  0.59441826  0.44031007  0.01882630     0.03500
C1527       C  0.61844745  0.44630716  0.31228035    -0.10600
H1528       H  0.61407179  0.37233824  0.98205417     0.09100
H1529       H  0.56186871  0.40804433  0.08243323     0.06600
H1530       H  0.62893948  0.46877336  0.28857015     0.06400
C1531       C  0.87856211  0.29228861  0.03302778     0.03500
C1532       C  0.89629053  0.32621822  0.04229483    -0.12700
C1533       C  0.92756849  0.34701307  0.01805753     0.01000
C1534       C  0.94074685  0.33444120  0.31303002    -0.11200
C1535       C  0.92554969  0.30011451  0.30415253     0.03500
C1536       C  0.89324228  0.27881928  0.99752342    -0.10100
H1537       H  0.88540258  0.33668621  0.06919429     0.09100
H1538       H  0.96193478  0.35230032  0.28825695     0.06600
H1539       H  0.87980818  0.25232097  0.32459267     0.06400
C1540       C  0.77572141  0.36494135  0.29152824     0.03500
C1541       C  0.75666733  0.37994373  0.30765236    -0.12700
C1542       C  0.77244883  0.40887818  0.01036115     0.01000
C1543       C  0.80628260  0.42154908  0.02813182    -0.11200
C1544       C  0.82505354  0.40804330  0.34379542     0.03500
C1545       C  0.80902108  0.37860237  0.31373569    -0.10600
H1546       H  0.73096335  0.37018620  0.95778505     0.09100
H1547       H  0.81870998  0.44320033  0.05533603     0.06600
H1548       H  0.82354909  0.36717913  0.30433711     0.06400
O1549       O  0.94223672  0.46179853  0.08941516    -0.88000
C1550       C  0.00744125  0.47424190  0.28950034     0.88000
Mg1551     Mg  0.92191265  0.99275460  0.09120932     1.58100
O1552       O  0.54517965  0.49967366  0.09277186    -0.87700
O1553       O  0.97201351  0.44421672  0.13454745    -0.75100
C1554       C  0.55101449  0.13928381  0.37924950     0.93100
O1555       O  0.93507992  0.48057821  0.28609984    -0.74900
O1556       O  0.51888407  0.12236523  0.37496991    -0.82400
Mg1557     Mg  0.93574040  0.44014033  0.33879423     1.58000
C1558       C  0.63687021  0.09077887  0.08205853     0.93000
O1559       O  0.92996708  0.39526216  0.04981629    -0.80600
H1560       H  0.55306343  0.49266365  0.17476630    -0.06000
C1561       C  0.55117446  0.06645560  0.31017645     0.87900
O1562       O  0.96397506  0.02866638  0.15553442    -0.75100
O1563       O  0.99293858  0.46989774  0.33673499    -0.87900
O1564       O  0.61936205  0.05972569  0.08991727    -0.80700
C1565       C  0.58074831  0.46202027  0.35442626     0.93100
C1566       C  0.94601183  0.38221954  0.03260328     0.93000
Mg1567     Mg  0.56467011  0.08219163  0.10348029     1.58000
O1568       O  0.56877883  0.12723361  0.39594633    -0.80600
O1569       O  0.56153613  0.03851969  0.15609054    -0.74900
O1570       O  0.54930760  0.44937743  0.34354426    -0.80700
O1571       O  0.87919296  0.41318170  0.34257977    -0.82400
O1572       O  0.94881861  0.06978821  0.08831082    -0.80800
C1573       C  0.55299115  0.00921870  0.14257109     0.87400
O1574       O  0.50992612  0.05900322  0.10593907    -0.87900
O1575       O  0.55735526  0.05767012  0.35655156    -0.88000
O1576       O  0.52613298  0.07064108  0.30361628    -0.75100
Mg1577     Mg  0.01162294  0.44940129  0.06870871     1.58000
O1578       O  0.59982084  0.49275718  0.36397845    -0.82400
H1579       H  0.93304783  0.44593693  0.17046665    -0.06200
O1580       O  0.95409610  0.01712935  0.35299173    -0.87700
H1581       H  0.94157905  0.02613135  0.27525941    -0.06000
H1582       H  0.50922689  0.06449898  0.19025882    -0.06200
C1583       C  0.94338853  0.00889460  0.30370305     0.87400
C1584       C  0.94825466  0.45054873  0.13303677     0.88000
C1585       C  0.99527347  0.05143198  0.15214086     0.88000
H1586       H  0.56683932  0.06977374  0.27403266    -0.06100
O1587       O  0.53952106  0.49423998  0.28614839    -0.75200
Mg1588     Mg  0.98690042  0.06858630  0.36538444     1.58000
H1589       H  0.99264456  0.46095029  0.25209088    -0.06200
C1590       C  0.86206367  0.42628629  0.35408650     0.93000
O1591       O  0.89903151  0.02467790  0.07708390    -0.82400
C1592       C  0.91817078  0.05560233  0.07047977     0.93100
O1593       O  0.97802930  0.39911984  0.03038325    -0.82400
Mg1594     Mg  0.57865322  0.02671600  0.35777352     1.58200
O1595       O  0.87599223  0.45534666  0.37405602    -0.80700
O1596       O  0.62303236  0.10767005  0.08936872    -0.82400
C1597       C  0.99448856  0.25254711  0.14820322    -0.02100
C1598       C  0.74458058  0.99830817  0.14279302    -0.02100
C1599       C  0.74645371  0.24921450  0.14316352    -0.02100
C1600       C  0.75772218  0.42945548  0.02961735     0.00200
C1601       C  0.77850637  0.46432545  0.02486974    -0.11700
C1602       C  0.77433392  0.48594364  0.05962021     0.02400
C1603       C  0.74776448  0.47404031  0.09962925     0.00100
C1604       C  0.72360067  0.43905149  0.09686149    -0.11600
C1605       C  0.72922882  0.41709175  0.06502766     0.02300
H1606       H  0.80051384  0.47485108  0.99744416     0.15300
H1607       H  0.70059117  0.42776262  0.12145622     0.15300
C1608       C  0.70680559  0.38188929  0.07295264     0.36900
C1609       C  0.80034144  0.02025076  0.05833269     0.36900
N1610       N  0.68897521  0.35365778  0.07964545    -0.43400
N1611       N  0.82153216  0.04778202  0.06142849    -0.43400
C1612       C  0.76484565  0.33675049  0.24946707     0.00200
C1613       C  0.73409340  0.30620726  0.25376268    -0.11700
C1614       C  0.72709722  0.27837760  0.22021841     0.02400
C1615       C  0.75271718  0.27883064  0.18490200     0.00100
C1616       C  0.78286388  0.31071784  0.18001494    -0.11600
C1617       C  0.78814393  0.33888857  0.20861538     0.02300
H1618       H  0.71500199  0.30420807  0.28258618     0.15300
H1619       H  0.80126672  0.31572659  0.14768893     0.15300
C1620       C  0.81723917  0.37055901  0.19197843     0.36900
C1621       C  0.69196985  0.25168793  0.21956724     0.36900
N1622       N  0.84045422  0.39580849  0.17847331    -0.43400
N1623       N  0.66314036  0.23172355  0.21981195    -0.43400
C1624       C  0.84445912  0.27366420  0.06103035     0.00200
C1625       C  0.81496092  0.26197715  0.02716817    -0.11700
C1626       C  0.78365377  0.25492350  0.05013163     0.02400
C1627       C  0.78045947  0.25878588  0.11014330     0.00100
C1628       C  0.81072785  0.26978305  0.14356778    -0.11600
C1629       C  0.84182590  0.27735267  0.12011083     0.02300
H1630       H  0.81695548  0.26040594  0.98137399     0.15300
H1631       H  0.80992557  0.27224531  0.18936815     0.15300
C1632       C  0.87160363  0.29168566  0.15721921     0.36900
C1633       C  0.75653824  0.24434514  0.00863805     0.36900
N1634       N  0.89582183  0.30446481  0.18611919    -0.43400
N1635       N  0.73549269  0.23595064  0.97370212    -0.43400
C1636       C  0.94287829  0.28737801  0.26573186     0.00200
C1637       C  0.92281785  0.25976762  0.23057507    -0.11700
C1638       C  0.93737472  0.24938988  0.18936486     0.02400
C1639       C  0.97359412  0.26182223  0.19004374     0.00100
C1640       C  0.99306824  0.28898710  0.22625692    -0.11600
C1641       C  0.97895912  0.30332383  0.25896475     0.02300
H1642       H  0.89531874  0.24853333  0.23037243     0.15300
H1643       H  0.52057292  0.30113008  0.22598451     0.15300
C1644       C  0.00328369  0.33651131  0.27722726     0.36900
C1645       C  0.91426320  0.23050569  0.14307582     0.36900
N1646       N  0.02330528  0.36395988  0.28691810    -0.43400
N1647       N  0.89511811  0.21583722  0.10633689    -0.43400
C1648       C  0.51990596  0.28685905  0.11748591     0.00200
C1649       C  0.50521454  0.30293201  0.08936460    -0.11700
C1650       C  0.52508709  0.33587001  0.07118819     0.02400
C1651       C  0.56107098  0.35108263  0.06338635     0.00100
C1652       C  0.57624099  0.33567890  0.09157924    -0.11600
C1653       C  0.55658659  0.30747897  0.12605572     0.02300
H1654       H  0.97762276  0.29121751  0.08909154     0.15300
H1655       H  0.60390825  0.34885727  0.09469425     0.15300
C1656       C  0.57450051  0.30624579  0.17677318     0.36900
C1657       C  0.50916257  0.35431626  0.08212205     0.36900
N1658       N  0.58920785  0.30628088  0.21764585    -0.43400
N1659       N  0.99611147  0.36764376  0.09911816    -0.43400
C1660       C  0.71206954  0.47564188  0.18115358     0.00200
C1661       C  0.68072495  0.47409372  0.17262702    -0.11700
C1662       C  0.65125796  0.45189064  0.20298589     0.02400
C1663       C  0.65287996  0.43392693  0.25094605     0.00100
C1664       C  0.68342905  0.43433931  0.25956305    -0.11600
C1665       C  0.71180643  0.45318982  0.22368197     0.02300
H1666       H  0.67807310  0.48973862  0.14204041     0.15300
H1667       H  0.68535096  0.42017158  0.29467248     0.15300
C1668       C  0.73931604  0.44693402  0.22860431     0.36900
C1669       C  0.61943811  0.44908940  0.18534983     0.36900
N1670       N  0.76092544  0.44121446  0.23024873    -0.43400
N1671       N  0.59397994  0.44711844  0.17230776    -0.43400
C1672       C  0.74218029  0.02586861  0.10428819     0.00200
C1673       C  0.71584856  0.01565323  0.06164778    -0.11700
C1674       C  0.70912998  0.03860901  0.03369659     0.02400
C1675       C  0.72970253  0.07277021  0.04389219     0.00100
C1676       C  0.75844517  0.08376924  0.07817828    -0.11600
C1677       C  0.76575554  0.06164890  0.10620193     0.02300
H1678       H  0.69904359  0.98951020  0.05276851     0.15300
H1679       H  0.77487619  0.11027499  0.08484894     0.15300
C1680       C  0.79899797  0.07901224  0.13323411     0.36900
C1681       C  0.68057825  0.02837283  0.32835458     0.36900
N1682       N  0.82605831  0.09513393  0.15305420    -0.43400
N1683       N  0.66007058  0.02576578  0.29559991    -0.43400
C1684       C  0.73587075  0.21569626  0.18002455     0.00200
C1685       C  0.70194983  0.19383172  0.19837044    -0.11700
C1686       C  0.69276240  0.16608341  0.23427787     0.02400
C1687       C  0.71802868  0.16203971  0.26278532     0.00100
C1688       C  0.75099908  0.18120969  0.24111937    -0.11600
C1689       C  0.75801866  0.20323835  0.19455802     0.02300
H1690       H  0.68145426  0.19601098  0.18048500     0.15300
H1691       H  0.77030173  0.17590987  0.25525076     0.15300
C1692       C  0.77950841  0.20100396  0.15313219     0.36900
C1693       C  0.65759118  0.13924756  0.23259179     0.36900
N1694       N  0.79610072  0.19783328  0.12047692    -0.43400
N1695       N  0.62963788  0.11725472  0.22966893    -0.43400
C1696       C  0.65826646  0.23402692  0.03564195     0.00200
C1697       C  0.68313548  0.26586347  0.05200039    -0.11700
C1698       C  0.71360507  0.27196975  0.07923842     0.02400
C1699       C  0.71744431  0.24502639  0.09957312     0.00100
C1700       C  0.69374871  0.21369575  0.07617341    -0.11600
C1701       C  0.66589832  0.20886128  0.04215364     0.02300
H1702       H  0.67883647  0.28598823  0.04345578     0.15300
H1703       H  0.69753222  0.19314586  0.08279527     0.15300
C1704       C  0.64376112  0.17748068  0.01491861     0.36900
C1705       C  0.74026459  0.30633747  0.08160636     0.36900
N1706       N  0.62422199  0.15320747  0.99192151    -0.43400
N1707       N  0.76064471  0.33433112  0.08157056    -0.43400
C1708       C  0.51589153  0.23961137  0.18012901     0.00200
C1709       C  0.50631450  0.22596836  0.23477766    -0.11700
C1710       C  0.52492186  0.21540455  0.26676351     0.02400
C1711       C  0.55631112  0.22088853  0.24675773     0.00100
C1712       C  0.56408749  0.23028399  0.18968667    -0.11600
C1713       C  0.54285922  0.23720653  0.15511076     0.02300
H1714       H  0.98312744  0.22227080  0.25195209     0.15300
H1715       H  0.58626419  0.23149286  0.17173437     0.15300
C1716       C  0.55287650  0.24592362  0.09658478     0.36900
C1717       C  0.51015387  0.19693734  0.31866288     0.36900
N1718       N  0.56312921  0.25452154  0.05102317    -0.43400
N1719       N  0.49950307  0.18129024  0.02648721    -0.43400
C1720       C  0.96827283  0.22167630  0.11068737     0.00200
C1721       C  0.94623546  0.19195264  0.14035894    -0.11700
C1722       C  0.92358689  0.16212680  0.11316556     0.02400
C1723       C  0.92107780  0.15992795  0.05287179     0.00100
C1724       C  0.94036487  0.18980276  0.02212493    -0.11600
C1725       C  0.96457152  0.22002704  0.05028662     0.02300
H1726       H  0.94628590  0.19169550  0.18633350     0.15300
H1727       H  0.93946796  0.18862371  0.97602024     0.15300
C1728       C  0.48929322  0.24715350  0.01686038     0.36900
C1729       C  0.90609247  0.13324556  0.14935977     0.36900
N1730       N  0.51162383  0.26925860  0.99347294    -0.43400
N1731       N  0.89365124  0.11028719  0.17893654    -0.43400
C1732       C  0.77561451  0.01674160  0.18779236     0.00200
C1733       C  0.80485009  0.01398566  0.18692829    -0.11700
C1734       C  0.83428227  0.03389225  0.22120749     0.02400
C1735       C  0.83531631  0.05658575  0.26152013     0.00100
C1736       C  0.80527128  0.05738212  0.26658236    -0.11600
C1737       C  0.77591021  0.03779424  0.23150463     0.02300
H1738       H  0.80544586  0.99648936  0.15877921     0.15300
H1739       H  0.80479065  0.07386756  0.96426760     0.15300
C1740       C  0.74867100  0.04432881  0.23453289     0.36900
C1741       C  0.86367332  0.03106984  0.21229498     0.36900
N1742       N  0.72767930  0.55083113  0.23359945    -0.43400
N1743       N  0.88715976  0.02867058  0.20547824    -0.43400
C1744       C  0.90727681  0.12631769  0.35868891     0.03500
C1745       C  0.92145914  0.10829977  0.38051405    -0.12700
C1746       C  0.90580531  0.07449334  0.70498447     0.01000
C1747       C  0.87903346  0.05900813  0.66476411    -0.11200
C1748       C  0.86588607  0.07642172  0.63554496     0.03500
C1749       C  0.87942279  0.11035931  0.31825166    -0.10600
H1750       H  0.94327906  0.12024177  0.40964238     0.09100
H1751       H  0.86721847  0.03263970  0.65812607     0.06600
H1752       H  0.86811307  0.12377009  0.63389695     0.06400
C1753       C  0.62216470  0.22427920  0.35502035     0.03500
C1754       C  0.59788171  0.19711026  0.38652079    -0.12700
C1755       C  0.56852594  0.17300275  0.35882748     0.01000
C1756       C  0.55943935  0.17943822  0.63889001    -0.11200
C1757       C  0.57703937  0.21146208  0.61680551     0.03500
C1758       C  0.61076564  0.23365725  0.63841761    -0.10600
H1759       H  0.60528604  0.19092350  0.42697886     0.09100
H1760       H  0.53627718  0.16045364  0.61757881     0.06600
H1761       H  0.62745724  0.25689562  0.61699074     0.06400
C1762       C  0.70974144  0.13702792  0.64494486     0.03500
C1763       C  0.72666371  0.11910794  0.32125732    -0.12700
C1764       C  0.71621203  0.09521803  0.36616219     0.01000
C1765       C  0.68900112  0.08914873  0.40031097    -0.11200
C1766       C  0.67144703  0.10544786  0.72433698     0.03500
C1767       C  0.68323037  0.13038041  0.68247233    -0.10600
H1768       H  0.74670125  0.12261786  0.29329710     0.09100
H1769       H  0.68000530  0.06979406  0.43252313     0.06600
H1770       H  0.67039074  0.14344052  0.67690662     0.06400
C1771       C  0.62671617  0.42291772  0.63124146     0.03500
C1772       C  0.60915694  0.39149873  0.32680779    -0.12700
C1773       C  0.58368067  0.38476288  0.36861898     0.01000
C1774       C  0.57863221  0.41061870  0.38220587    -0.11200
C1775       C  0.59441848  0.44031039  0.35216004     0.03500
C1776       C  0.61844752  0.44630681  0.64561466    -0.10600
H1777       H  0.61407119  0.37233805  0.31538739     0.09100
H1778       H  0.56186931  0.40804492  0.41576765     0.06600
H1779       H  0.62893977  0.46877324  0.62190508     0.06400
C1780       C  0.87856179  0.29228912  0.36636114     0.03500
C1781       C  0.89629045  0.32621867  0.37562903    -0.12700
C1782       C  0.92756857  0.34701352  0.35139219     0.01000
C1783       C  0.94074681  0.33444078  0.64636416    -0.11200
C1784       C  0.92554964  0.30011411  0.63748646     0.03500
C1785       C  0.89324190  0.27881987  0.33085642    -0.10100
H1786       H  0.88540258  0.33668661  0.40252879     0.09100
H1787       H  0.96193482  0.35229995  0.62159132     0.06600
H1788       H  0.87980814  0.25232052  0.65792640     0.06400
C1789       C  0.77572080  0.36494098  0.62486236     0.03500
C1790       C  0.75666699  0.37994371  0.64098612    -0.12700
C1791       C  0.77244869  0.40887769  0.34369576     0.01000
C1792       C  0.80628242  0.42154853  0.36146668    -0.11200
C1793       C  0.82505299  0.40804258  0.67712987     0.03500
C1794       C  0.80902033  0.37860163  0.64707025    -0.10600
H1795       H  0.73096336  0.37018591  0.29111920     0.09100
H1796       H  0.81870971  0.44319966  0.38867120     0.06600
H1797       H  0.82354814  0.36717815  0.63767186     0.06400
O1798       O  0.94223688  0.46179894  0.42274951    -0.88000
C1799       C  0.00744079  0.47424093  0.62283401     0.88000
Mg1800     Mg  0.92191267  0.99275490  0.42454268     1.58100
O1801       O  0.54518002  0.49967423  0.42610578    -0.87700
O1802       O  0.97201403  0.44421759  0.46788204    -0.75100
C1803       C  0.55101434  0.13928312  0.71258046     0.93100
O1804       O  0.93507922  0.48057711  0.61943316    -0.74900
O1805       O  0.51888393  0.12236450  0.70830071    -0.82400
Mg1806     Mg  0.93573988  0.44013947  0.67212799     1.58000
C1807       C  0.63687044  0.09077944  0.41539204     0.93000
O1808       O  0.92996757  0.39526259  0.38315225    -0.80600
H1809       H  0.55306402  0.49266448  0.50810025    -0.06000
C1810       C  0.55117405  0.06645446  0.64350894     0.87900
O1811       O  0.96397504  0.02866693  0.48886763    -0.75100
O1812       O  0.99293813  0.46989695  0.67006861    -0.87900
O1813       O  0.61936229  0.05972626  0.42325079    -0.80700
C1814       C  0.58074798  0.46201948  0.68776031     0.93100
C1815       C  0.94601211  0.38221991  0.36593861     0.93000
Mg1816     Mg  0.56467023  0.08219210  0.43681362     1.58000
O1817       O  0.56877867  0.12723300  0.72927777    -0.80600
O1818       O  0.56153649  0.03852039  0.48942416    -0.74900
O1819       O  0.54930724  0.44937658  0.67687853    -0.80700
O1820       O  0.87919236  0.41318081  0.67591373    -0.82400
O1821       O  0.94881854  0.06978842  0.42164345    -0.80800
C1822       C  0.55299160  0.00921940  0.47590492     0.87400
O1823       O  0.50992617  0.05900355  0.43927230    -0.87900
O1824       O  0.55735500  0.05766933  0.68988428    -0.88000
O1825       O  0.52613247  0.07063977  0.63694850    -0.75100
Mg1826     Mg  0.01162328  0.44940177  0.40204320     1.58000
O1827       O  0.59982050  0.49275642  0.69731226    -0.82400
H1828       H  0.93304851  0.44593800  0.50380140    -0.06200
O1829       O  0.95409564  0.01712846  0.68632478    -0.87700
H1830       H  0.94157832  0.02613021  0.60859248    -0.06000
H1831       H  0.50922688  0.06449963  0.52359193    -0.06200
C1832       C  0.94338790  0.00889355  0.63703621     0.87400
C1833       C  0.94825513  0.45054953  0.46637135     0.88000
C1834       C  0.99527349  0.05143248  0.48547404     0.88000
H1835       H  0.56683885  0.06977240  0.60736516    -0.06100
O1836       O  0.53952062  0.49423892  0.61948201    -0.75200
Mg1837     Mg  0.98690008  0.06858545  0.69871658     1.58000
H1838       H  0.99264409  0.46094920  0.58542464    -0.06200
C1839       C  0.86206314  0.42628545  0.68742070     0.93000
O1840       O  0.89903147  0.02467811  0.41041646    -0.82400
C1841       C  0.91817075  0.05560252  0.40381219     0.93100
O1842       O  0.97802957  0.39912015  0.36371824    -0.82400
Mg1843     Mg  0.57865292  0.02671520  0.69110689     1.58200
O1844       O  0.87599182  0.45534583  0.70739019    -0.80700
O1845       O  0.62303254  0.10767060  0.42270201    -0.82400
C1846       C  0.99448809  0.25254691  0.48153611    -0.02100
C1847       C  0.74458046  0.99830811  0.47612632    -0.02100
C1848       C  0.74645323  0.24921435  0.47649723    -0.02100
C1849       C  0.75772205  0.42945506  0.36295164     0.00200
C1850       C  0.77850631  0.46432501  0.35820382    -0.11700
C1851       C  0.77433382  0.48594333  0.39295383     0.02400
C1852       C  0.74776430  0.47404015  0.43296269     0.00100
C1853       C  0.72360041  0.43905134  0.43019506    -0.11600
C1854       C  0.72922858  0.41709147  0.39836167     0.02300
H1855       H  0.80051388  0.47485052  0.33077846     0.15300
H1856       H  0.70059084  0.42776260  0.45478959     0.15300
C1857       C  0.70680520  0.38188904  0.40628679     0.36900
C1858       C  0.80034149  0.02025038  0.39166620     0.36900
N1859       N  0.68897464  0.35365757  0.41297976    -0.43400
N1860       N  0.82153242  0.04778157  0.39476182    -0.43400
C1861       C  0.76484501  0.33675024  0.58280091     0.00200
C1862       C  0.73409269  0.30620702  0.58709625    -0.11700
C1863       C  0.72709660  0.27837737  0.55355201     0.02400
C1864       C  0.75271663  0.27883045  0.51823576     0.00100
C1865       C  0.78286336  0.31071764  0.51334891    -0.11600
C1866       C  0.78814341  0.33888834  0.54194946     0.02300
H1867       H  0.71500123  0.30420781  0.61591964     0.15300
H1868       H  0.80126629  0.31572645  0.48102306     0.15300
C1869       C  0.81723895  0.37055872  0.52531314     0.36900
C1870       C  0.69196929  0.25168755  0.55290093     0.36900
N1871       N  0.84045432  0.39580813  0.51180861    -0.43400
N1872       N  0.66313987  0.23172299  0.55314569    -0.43400
C1873       C  0.84445873  0.27366468  0.39436353     0.00200
C1874       C  0.81496055  0.26197783  0.36050137    -0.11700
C1875       C  0.78365334  0.25492387  0.38346504     0.02400
C1876       C  0.78045900  0.25878588  0.44347685     0.00100
C1877       C  0.81072741  0.26978302  0.47690122    -0.11600
C1878       C  0.84182546  0.27735278  0.45344413     0.02300
H1879       H  0.81695514  0.26040691  0.31470712     0.15300
H1880       H  0.80992511  0.27224510  0.52270164     0.15300
C1881       C  0.87160312  0.29168534  0.49055265     0.36900
C1882       C  0.75653776  0.24434554  0.34197156     0.36900
N1883       N  0.89582125  0.30446410  0.51945284    -0.43400
N1884       N  0.73549213  0.23595104  0.30703579    -0.43400
C1885       C  0.94287817  0.28737763  0.59906563     0.00200
C1886       C  0.92281762  0.25976730  0.56390879    -0.11700
C1887       C  0.93737438  0.24938962  0.52269832     0.02400
C1888       C  0.97359374  0.26182188  0.52337706     0.00100
C1889       C  0.99306797  0.28898657  0.55959054    -0.11600
C1890       C  0.97895898  0.30332338  0.59229843     0.02300
H1891       H  0.89531852  0.24853308  0.56370627     0.15300
H1892       H  0.52057264  0.30112944  0.55931810     0.15300
C1893       C  0.00328364  0.33651092  0.61056051     0.36900
C1894       C  0.91426278  0.23050563  0.47640923     0.36900
N1895       N  0.02330532  0.36395952  0.62025096    -0.43400
N1896       N  0.89511761  0.21583733  0.43967028    -0.43400
C1897       C  0.51990551  0.28685904  0.45081912     0.00200
C1898       C  0.50521420  0.30293236  0.42269860    -0.11700
C1899       C  0.52508693  0.33587047  0.40452260     0.02400
C1900       C  0.56107075  0.35108282  0.39672014     0.00100
C1901       C  0.57624062  0.33567875  0.42491229    -0.11600
C1902       C  0.55658617  0.30747880  0.45938870     0.02300
H1903       H  0.97762244  0.29121806  0.42242590     0.15300
H1904       H  0.60390788  0.34885690  0.42802695     0.15300
C1905       C  0.57450010  0.30624553  0.51010606     0.36900
C1906       C  0.50916288  0.35431705  0.41545748     0.36900
N1907       N  0.58920747  0.30628056  0.55097865    -0.43400
N1908       N  0.99611229  0.36764487  0.43245430    -0.43400
C1909       C  0.71206950  0.47564191  0.51448708     0.00200
C1910       C  0.68072494  0.47409387  0.50596091    -0.11700
C1911       C  0.65125800  0.45189081  0.53631992     0.02400
C1912       C  0.65288003  0.43392690  0.58427977     0.00100
C1913       C  0.68342911  0.43433924  0.59289648    -0.11600
C1914       C  0.71180646  0.45318984  0.55701540     0.02300
H1915       H  0.67807311  0.48973888  0.47537453     0.15300
H1916       H  0.68535105  0.42017145  0.62800577     0.15300
C1917       C  0.73931617  0.44693419  0.56193787     0.36900
C1918       C  0.61943820  0.44908981  0.51868433     0.36900
N1919       N  0.76092568  0.44121478  0.56358256    -0.43400
N1920       N  0.59398008  0.44711906  0.50564265    -0.43400
C1921       C  0.74218014  0.02586849  0.43762134     0.00200
C1922       C  0.71584817  0.01565311  0.39498135    -0.11700
C1923       C  0.70912958  0.03860892  0.36703034     0.02400
C1924       C  0.72970234  0.07277014  0.37722563     0.00100
C1925       C  0.75844519  0.08376914  0.41151114    -0.11600
C1926       C  0.76575554  0.06164876  0.43953466     0.02300
H1927       H  0.69904306  0.98951006  0.38610234     0.15300
H1928       H  0.77487639  0.11027489  0.41818149     0.15300
C1929       C  0.79899808  0.07901202  0.46656643     0.36900
C1930       C  0.68057871  0.02837304  0.66168874     0.36900
N1931       N  0.82605851  0.09513364  0.48638623    -0.43400
N1932       N  0.66007083  0.02576574  0.62893431    -0.43400
C1933       C  0.73587037  0.21569610  0.51335822     0.00200
C1934       C  0.70194943  0.19383131  0.53170388    -0.11700
C1935       C  0.69276213  0.16608296  0.56761117     0.02400
C1936       C  0.71802852  0.16203956  0.59611897     0.00100
C1937       C  0.75099898  0.18120984  0.57445337    -0.11600
C1938       C  0.75801847  0.20323844  0.52789197     0.02300
H1939       H  0.68145377  0.19601043  0.51381845     0.15300
H1940       H  0.77030176  0.17591026  0.58858502     0.15300
C1941       C  0.77950835  0.20100416  0.48646628     0.36900
C1942       C  0.65759106  0.13924677  0.56592459     0.36900
N1943       N  0.79610080  0.19783359  0.45381115    -0.43400
N1944       N  0.62963792  0.11725365  0.56300148    -0.43400
C1945       C  0.65826617  0.23402698  0.36897544     0.00200
C1946       C  0.68313524  0.26586351  0.38533390    -0.11700
C1947       C  0.71360476  0.27196966  0.41257202     0.02400
C1948       C  0.71744382  0.24502624  0.43290691     0.00100
C1949       C  0.69374819  0.21369564  0.40950715    -0.11600
C1950       C  0.66589790  0.20886126  0.37548721     0.02300
H1951       H  0.67883636  0.28598834  0.37678917     0.15300
H1952       H  0.69753165  0.19314572  0.41612900     0.15300
C1953       C  0.64376076  0.17748070  0.34825199     0.36900
C1954       C  0.74026448  0.30633731  0.41493970     0.36900
N1955       N  0.62422181  0.15320748  0.32525474    -0.43400
N1956       N  0.76064485  0.33433089  0.41490374    -0.43400
C1957       C  0.51589109  0.23961105  0.51346150     0.00200
C1958       C  0.50631409  0.22596780  0.56811005    -0.11700
C1959       C  0.52492159  0.21540404  0.60009565     0.02400
C1960       C  0.55631092  0.22088827  0.58008976     0.00100
C1961       C  0.56408722  0.23028388  0.52301872    -0.11600
C1962       C  0.54285884  0.23720640  0.48844302     0.02300
H1963       H  0.98312700  0.22227012  0.58528472     0.15300
H1964       H  0.58626397  0.23149293  0.50506628     0.15300
C1965       C  0.55287617  0.24592380  0.42991713     0.36900
C1966       C  0.51015369  0.19693665  0.65199490     0.36900
N1967       N  0.56312896  0.25452207  0.38435566    -0.43400
N1968       N  0.49950258  0.18129066  0.35982061    -0.43400
C1969       C  0.96827223  0.22167618  0.44402013     0.00200
C1970       C  0.94623492  0.19195242  0.47369151    -0.11700
C1971       C  0.92358643  0.16212661  0.44649794     0.02400
C1972       C  0.92107730  0.15992789  0.38620415     0.00100
C1973       C  0.94036419  0.18980284  0.35545751    -0.11600
C1974       C  0.96457076  0.22002711  0.38361941     0.02300
H1975       H  0.94628539  0.19169517  0.51966606     0.15300
H1976       H  0.93946725  0.18862394  0.30935280     0.15300
C1977       C  0.48929231  0.24715379  0.35019343     0.36900
C1978       C  0.90609225  0.13324525  0.48269198     0.36900
N1979       N  0.51162289  0.26925907  0.32680629    -0.43400
N1980       N  0.89365125  0.11028681  0.51226861    -0.43400
C1981       C  0.77561443  0.01674164  0.52112554     0.00200
C1982       C  0.80484990  0.01398552  0.52026165    -0.11700
C1983       C  0.83428208  0.03389204  0.55454082     0.02400
C1984       C  0.83531624  0.05658566  0.59485333     0.00100
C1985       C  0.80527133  0.05738226  0.59991534    -0.11600
C1986       C  0.77591024  0.03779445  0.56483759     0.02300
H1987       H  0.80544555  0.99648906  0.49211281     0.15300
H1988       H  0.80478999  0.07386675  0.29760100     0.15300
C1989       C  0.74867108  0.04432910  0.56786583     0.36900
C1990       C  0.86367297  0.03106933  0.54562848     0.36900
N1991       N  0.72767934  0.55083139  0.56693260    -0.43400
N1992       N  0.88715922  0.02866977  0.53881182    -0.43400
C1993       C  0.90727664  0.12631715  0.69202283     0.03500
C1994       C  0.92145891  0.10829914  0.71384762    -0.12700
C1995       C  0.90580557  0.07449377  0.03831914     0.01000
C1996       C  0.87903377  0.05900856  0.99809864    -0.11200
C1997       C  0.86588652  0.07642217  0.96887914     0.03500
C1998       C  0.87942271  0.11035899  0.65158537    -0.10600
H1999       H  0.94327887  0.12024104  0.74297590     0.09100
H2000       H  0.86721876  0.03264012  0.99146062     0.06600
H2001       H  0.86811374  0.12377063  0.96723043     0.06400
C2002       C  0.62216440  0.22427888  0.68835264     0.03500
C2003       C  0.59788140  0.19710962  0.71985245    -0.12700
C2004       C  0.56852584  0.17300212  0.69215861     0.01000
C2005       C  0.55943974  0.17943818  0.97222505    -0.11200
C2006       C  0.57703980  0.21146187  0.95013983     0.03500
C2007       C  0.61076612  0.23365710  0.97175154    -0.10600
H2008       H  0.60528561  0.19092272  0.76031050     0.09100
H2009       H  0.53627750  0.16045350  0.95091417     0.06600
H2010       H  0.62745772  0.25689529  0.95032418     0.06400
C2011       C  0.70974102  0.13702751  0.97827713     0.03500
C2012       C  0.72666393  0.11910813  0.65459135    -0.12700
C2013       C  0.71621233  0.09521825  0.69949627     0.01000
C2014       C  0.68900124  0.08914871  0.73364481    -0.11200
C2015       C  0.67144687  0.10544762  0.05766971     0.03500
C2016       C  0.68323010  0.13038009  0.01580490    -0.10600
H2017       H  0.74670162  0.12261823  0.62663133     0.09100
H2018       H  0.68000546  0.06979405  0.76585700     0.06600
H2019       H  0.67039058  0.14344028  0.01023941     0.06400
C2020       C  0.62671644  0.42291811  0.96457455     0.03500
C2021       C  0.60915702  0.39149832  0.66014112    -0.12700
C2022       C  0.58368063  0.38476220  0.70195225     0.01000
C2023       C  0.57863191  0.41061783  0.71553931    -0.11200
C2024       C  0.59441824  0.44030968  0.68549394     0.03500
C2025       C  0.61844761  0.44630714  0.97894724    -0.10600
H2026       H  0.61407138  0.37233775  0.64872046     0.09100
H2027       H  0.56186884  0.40804382  0.74910097     0.06600
H2028       H  0.62893974  0.46877345  0.95523742     0.06400
C2029       C  0.87856166  0.29228859  0.69969491     0.03500
C2030       C  0.89629025  0.32621811  0.70896290    -0.12700
C2031       C  0.92756840  0.34701302  0.68472625     0.01000
C2032       C  0.94074688  0.33444064  0.97969580    -0.11200
C2033       C  0.92554991  0.30011391  0.97081908     0.03500
C2034       C  0.89324184  0.27881941  0.66419024    -0.10100
H2035       H  0.88540229  0.33668599  0.73586261     0.09100
H2036       H  0.96193474  0.35229966  0.95492249     0.06600
H2037       H  0.87980872  0.25232035  0.99126024     0.06400
C2038       C  0.77572133  0.36494153  0.95819426     0.03500
C2039       C  0.75666735  0.37994406  0.97431809    -0.12700
C2040       C  0.77244849  0.40887761  0.67702968     0.01000
C2041       C  0.80628210  0.42154809  0.69480096    -0.11200
C2042       C  0.82505356  0.40804361  0.01046095     0.03500
C2043       C  0.80902097  0.37860251  0.98040178    -0.10600
H2044       H  0.73096315  0.37018620  0.62445259     0.09100
H2045       H  0.81870949  0.44319920  0.72200553     0.06600
H2046       H  0.82354884  0.36717906  0.97100365     0.06400
O2047       O  0.94223652  0.46179834  0.75608311    -0.88000
C2048       C  0.00744121  0.47424181  0.95616608     0.88000
Mg2049     Mg  0.92191243  0.99275437  0.75787613     1.58100
O2050       O  0.54517973  0.49967376  0.75943929    -0.87700
O2051       O  0.97201378  0.44421721  0.80121593    -0.75100
C2052       C  0.55101470  0.13928357  0.04591628     0.93100
O2053       O  0.93508008  0.48057857  0.95276579    -0.74900
O2054       O  0.51888427  0.12236512  0.04163700    -0.82400
Mg2055     Mg  0.93574030  0.44014034  0.00545940     1.58000
C2056       C  0.63687020  0.09077894  0.74872510     0.93000
O2057       O  0.92996724  0.39526197  0.71648644    -0.80600
H2058       H  0.55306378  0.49266430  0.84143386    -0.06000
C2059       C  0.55117427  0.06645529  0.97684305     0.87900
O2060       O  0.96397499  0.02866669  0.82220049    -0.75100
O2061       O  0.99293845  0.46989753  0.00340065    -0.87900
O2062       O  0.61936216  0.05972574  0.75658383    -0.80700
C2063       C  0.58074807  0.46201993  0.02109233     0.93100
C2064       C  0.94601186  0.38221936  0.69927283     0.93000
Mg2065     Mg  0.56466996  0.08219163  0.77014595     1.58000
O2066       O  0.56877894  0.12723325  0.06261304    -0.80600
O2067       O  0.56153621  0.03852015  0.82275726    -0.74900
O2068       O  0.54930741  0.44937714  0.01020997    -0.80700
O2069       O  0.87919291  0.41318192  0.00924455    -0.82400
O2070       O  0.94881846  0.06978787  0.75497580    -0.80800
C2071       C  0.55299134  0.00921912  0.80923840     0.87400
O2072       O  0.50992597  0.05900312  0.77260467    -0.87900
O2073       O  0.55735507  0.05766974  0.02321810    -0.88000
O2074       O  0.52613286  0.07064089  0.97028302    -0.75100
Mg2075     Mg  0.01162298  0.44940126  0.73537717     1.58000
O2076       O  0.59982060  0.49275683  0.03064458    -0.82400
H2077       H  0.93304819  0.44593759  0.83713511    -0.06200
O2078       O  0.95409603  0.01712932  0.01965845    -0.87700
H2079       H  0.94157914  0.02613175  0.94192635    -0.06000
H2080       H  0.50922692  0.06449953  0.85692426    -0.06200
C2081       C  0.94338857  0.00889484  0.97036965     0.87400
C2082       C  0.94825481  0.45054906  0.79970508     0.88000
C2083       C  0.99527340  0.05143224  0.81880654     0.88000
H2084       H  0.56683907  0.06977338  0.94069920    -0.06100
O2085       O  0.53952102  0.49423982  0.95281438    -0.75200
Mg2086     Mg  0.98690042  0.06858619  0.03205145     1.58000
H2087       H  0.99264460  0.46095030  0.91875650    -0.06200
C2088       C  0.86206366  0.42628645  0.02075205     0.93000
O2089       O  0.89903127  0.02467756  0.74374960    -0.82400
C2090       C  0.91817058  0.05560194  0.73714502     0.93100
O2091       O  0.97802931  0.39911964  0.69705261    -0.82400
Mg2092     Mg  0.57865304  0.02671563  0.02443981     1.58200
O2093       O  0.87599224  0.45534661  0.04072247    -0.80700
O2094       O  0.62303216  0.10767001  0.75603465    -0.82400
C2095       C  0.99448849  0.25254633  0.81486976    -0.02100
C2096       C  0.74458105  0.99830858  0.80946020    -0.02100
C2097       C  0.74645311  0.24921430  0.80983010    -0.02100
C2098       C  0.75772214  0.42945526  0.69628542     0.00200
C2099       C  0.77850672  0.46432521  0.69153785    -0.11700
C2100       C  0.77433435  0.48594363  0.72628784     0.02400
C2101       C  0.74776477  0.47404057  0.76629654     0.00100
C2102       C  0.72360060  0.43905184  0.76352853    -0.11600
C2103       C  0.72922856  0.41709184  0.73169513     0.02300
H2104       H  0.80051434  0.47485061  0.66411265     0.15300
H2105       H  0.70059091  0.42776323  0.78812274     0.15300
C2106       C  0.70680483  0.38188944  0.73961995     0.36900
C2107       C  0.80034199  0.02025069  0.72500009     0.36900
N2108       N  0.68897399  0.35365799  0.74631273    -0.43400
N2109       N  0.82153279  0.04778192  0.72809563    -0.43400
C2110       C  0.76484554  0.33675052  0.91613338     0.00200
C2111       C  0.73409327  0.30620732  0.92042926    -0.11700
C2112       C  0.72709702  0.27837751  0.88688536     0.02400
C2113       C  0.75271682  0.27883046  0.85156873     0.00100
C2114       C  0.78286360  0.31071760  0.84668151    -0.11600
C2115       C  0.78814382  0.33888842  0.87528187     0.02300
H2116       H  0.71500192  0.30420825  0.94925278     0.15300
H2117       H  0.80126638  0.31572626  0.81435544     0.15300
C2118       C  0.81723933  0.37055871  0.85864507     0.36900
C2119       C  0.69196971  0.25168773  0.88623480     0.36900
N2120       N  0.84045466  0.39580805  0.84514012    -0.43400
N2121       N  0.66314029  0.23172322  0.88647997    -0.43400
C2122       C  0.84445856  0.27366410  0.72769705     0.00200
C2123       C  0.81496049  0.26197748  0.69383467    -0.11700
C2124       C  0.78365331  0.25492372  0.71679813     0.02400
C2125       C  0.78045887  0.25878565  0.77680990     0.00100
C2126       C  0.81072713  0.26978248  0.81023452    -0.11600
C2127       C  0.84182519  0.27735210  0.78677765     0.02300
H2128       H  0.81695518  0.26040662  0.64804044     0.15300
H2129       H  0.80992474  0.27224448  0.85603494     0.15300
C2130       C  0.87160278  0.29168459  0.82388631     0.36900
C2131       C  0.75653784  0.24434562  0.67530452     0.36900
N2132       N  0.89582088  0.30446333  0.85278657    -0.43400
N2133       N  0.73549231  0.23595124  0.64036862    -0.43400
C2134       C  0.94287845  0.28737730  0.93239858     0.00200
C2135       C  0.92281793  0.25976679  0.89724213    -0.11700
C2136       C  0.93737469  0.24938896  0.85603191     0.02400
C2137       C  0.97359410  0.26182138  0.85671050     0.00100
C2138       C  0.99306830  0.28898626  0.89292364    -0.11600
C2139       C  0.97895926  0.30332313  0.92563128     0.02300
H2140       H  0.89531882  0.24853247  0.89703973     0.15300
H2141       H  0.52057298  0.30112923  0.89265112     0.15300
C2142       C  0.00328383  0.33651076  0.94389307     0.36900
C2143       C  0.91426297  0.23050455  0.80974322     0.36900
N2144       N  0.02330543  0.36395941  0.95358331    -0.43400
N2145       N  0.89511769  0.21583589  0.77300463    -0.43400
C2146       C  0.51990586  0.28685833  0.78415250     0.00200
C2147       C  0.50521444  0.30293143  0.75603163    -0.11700
C2148       C  0.52508700  0.33586947  0.73785538     0.02400
C2149       C  0.56107087  0.35108205  0.73005323     0.00100
C2150       C  0.57624088  0.33567820  0.75824571    -0.11600
C2151       C  0.55658651  0.30747821  0.79272211     0.02300
H2152       H  0.97762265  0.29121696  0.75575881     0.15300
H2153       H  0.60390814  0.34885653  0.76136055     0.15300
C2154       C  0.57450048  0.30624499  0.84343947     0.36900
C2155       C  0.50916262  0.35431578  0.74878983     0.36900
N2156       N  0.58920783  0.30628004  0.88431209    -0.43400
N2157       N  0.99611161  0.36764325  0.76578647    -0.43400
C2158       C  0.71207008  0.47564243  0.84782089     0.00200
C2159       C  0.68072559  0.47409450  0.83929467    -0.11700
C2160       C  0.65125854  0.45189125  0.86965321     0.02400
C2161       C  0.65288044  0.43392730  0.91761308     0.00100
C2162       C  0.68342949  0.43433957  0.92622993    -0.11600
C2163       C  0.71180688  0.45319016  0.89034891     0.02300
H2164       H  0.67807385  0.48973965  0.80870848     0.15300
H2165       H  0.68535132  0.42017164  0.96133908     0.15300
C2166       C  0.73931635  0.44693413  0.89527068     0.36900
C2167       C  0.61943872  0.44909003  0.85201700     0.36900
N2168       N  0.76092562  0.44121438  0.89691450    -0.43400
N2169       N  0.59398058  0.44711908  0.83897477    -0.43400
C2170       C  0.74218079  0.02586897  0.77095523     0.00200
C2171       C  0.71584886  0.01565354  0.72831522    -0.11700
C2172       C  0.70913015  0.03860928  0.70036431     0.02400
C2173       C  0.72970278  0.07277050  0.71055974     0.00100
C2174       C  0.75844567  0.08376957  0.74484526    -0.11600
C2175       C  0.76575614  0.06164924  0.77286864     0.02300
H2176       H  0.69904379  0.98951049  0.71943623     0.15300
H2177       H  0.77487678  0.11027533  0.75151570     0.15300
C2178       C  0.79899871  0.07901253  0.79990035     0.36900
C2179       C  0.68057880  0.02837288  0.99502047     0.36900
N2180       N  0.82605916  0.09513413  0.81972011    -0.43400
N2181       N  0.66007122  0.02576583  0.96226560    -0.43400
C2182       C  0.73587008  0.21569593  0.84669085     0.00200
C2183       C  0.70194916  0.19383134  0.86503670    -0.11700
C2184       C  0.69276176  0.16608295  0.90094400     0.02400
C2185       C  0.71802807  0.16203919  0.92945125     0.00100
C2186       C  0.75099843  0.18120917  0.90778510    -0.11600
C2187       C  0.75801791  0.20323787  0.86122384     0.02300
H2188       H  0.68145360  0.19601062  0.84715129     0.15300
H2189       H  0.77030109  0.17590931  0.92191620     0.15300
C2190       C  0.77950732  0.20100330  0.81979752     0.36900
C2191       C  0.65759053  0.13924711  0.89925791     0.36900
N2192       N  0.79609937  0.19783252  0.78714183    -0.43400
N2193       N  0.62963722  0.11725430  0.89633507    -0.43400
C2194       C  0.65826592  0.23402692  0.70230821     0.00200
C2195       C  0.68313468  0.26586339  0.71866751    -0.11700
C2196       C  0.71360424  0.27196968  0.74590573     0.02400
C2197       C  0.71744368  0.24502633  0.76623983     0.00100
C2198       C  0.69374825  0.21369580  0.74283959    -0.11600
C2199       C  0.66589797  0.20886140  0.70881952     0.02300
H2200       H  0.67883552  0.28598809  0.71012330     0.15300
H2201       H  0.69753187  0.19314596  0.74946114     0.15300
C2202       C  0.64376112  0.17748097  0.68158370     0.36900
C2203       C  0.74026352  0.30633747  0.74827436     0.36900
N2204       N  0.62422225  0.15320788  0.65858602    -0.43400
N2205       N  0.76064340  0.33433119  0.74823908    -0.43400
C2206       C  0.51589151  0.23961059  0.84679537     0.00200
C2207       C  0.50631465  0.22596768  0.90144412    -0.11700
C2208       C  0.52492212  0.21540395  0.93342987     0.02400
C2209       C  0.55631133  0.22088793  0.91342387     0.00100
C2210       C  0.56408753  0.23028327  0.85635270    -0.11600
C2211       C  0.54285914  0.23720574  0.82177692     0.02300
H2212       H  0.98312766  0.22227018  0.91861879     0.15300
H2213       H  0.58626419  0.23149215  0.83840025     0.15300
C2214       C  0.55287627  0.24592284  0.76325089     0.36900
C2215       C  0.51015428  0.19693685  0.98532940     0.36900
N2216       N  0.56312883  0.25452085  0.71768922    -0.43400
N2217       N  0.49950247  0.18128982  0.69315250    -0.43400
C2218       C  0.96827268  0.22167554  0.77735393     0.00200
C2219       C  0.94623552  0.19195180  0.80702546    -0.11700
C2220       C  0.92358681  0.16212602  0.77983204     0.02400
C2221       C  0.92107734  0.15992732  0.71953824     0.00100
C2222       C  0.94036420  0.18980221  0.68879151    -0.11600
C2223       C  0.96457099  0.22002643  0.71695322     0.02300
H2224       H  0.94628624  0.19169456  0.85300003     0.15300
H2225       H  0.93946709  0.18862330  0.64268678     0.15300
C2226       C  0.48929246  0.24715297  0.68352689     0.36900
C2227       C  0.90609274  0.13324471  0.81602619     0.36900
N2228       N  0.51162294  0.26925813  0.66013937    -0.43400
N2229       N  0.89365184  0.11028632  0.84560296    -0.43400
C2230       C  0.77561498  0.01674205  0.85445953     0.00200
C2231       C  0.80485044  0.01398591  0.85359577    -0.11700
C2232       C  0.83428261  0.03389247  0.88787499     0.02400
C2233       C  0.83531674  0.05658611  0.92818740     0.00100
C2234       C  0.80527185  0.05738277  0.93324921    -0.11600
C2235       C  0.77591079  0.03779492  0.89817145     0.02300
H2236       H  0.80544613  0.99648948  0.82544690     0.15300
H2237       H  0.80479011  0.07386697  0.63093391     0.15300
C2238       C  0.74867174  0.04432975  0.90119935     0.36900
C2239       C  0.86367361  0.03106994  0.87896259     0.36900
N2240       N  0.72768014  0.55083224  0.90026572    -0.43400
N2241       N  0.88716000  0.02867062  0.87214580    -0.43400
C2242       C  0.90728668  0.62630871  0.02535366     0.03500
C2243       C  0.92146858  0.60829088  0.04718149    -0.12700
C2244       C  0.90581204  0.57448399  0.37165892     0.01000
C2245       C  0.87903984  0.55899747  0.33143950    -0.11200
C2246       C  0.86589511  0.57641149  0.30221417     0.03500
C2247       C  0.87943319  0.61034970  0.98491653    -0.10600
H2248       H  0.94328901  0.62023375  0.07630865     0.09100
H2249       H  0.86722309  0.53262843  0.32480588     0.06600
H2250       H  0.86812347  0.62376030  0.30055750     0.06400
C2251       C  0.62216001  0.72426938  0.02167389     0.03500
C2252       C  0.59787724  0.69710162  0.05317532    -0.12700
C2253       C  0.56852105  0.67299428  0.02548386     0.01000
C2254       C  0.55943310  0.67943017  0.30554871    -0.11200
C2255       C  0.57703511  0.71145377  0.28346090     0.03500
C2256       C  0.61076161  0.73364791  0.30507203    -0.10600
H2257       H  0.60528157  0.69091574  0.09363431     0.09100
H2258       H  0.53626922  0.66044615  0.28424079     0.06600
H2259       H  0.62745371  0.75688595  0.28364464     0.06400
C2260       C  0.70974465  0.63702164  0.31159360     0.03500
C2261       C  0.72666877  0.61910291  0.98791345    -0.12700
C2262       C  0.71622068  0.59521751  0.03282782     0.01000
C2263       C  0.68901004  0.58915065  0.06697566    -0.11200
C2264       C  0.67145358  0.60544740  0.39099343     0.03500
C2265       C  0.68323421  0.63037570  0.34912130    -0.10600
H2266       H  0.74670596  0.62261161  0.95995359     0.09100
H2267       H  0.68001597  0.56979941  0.09919393     0.06600
H2268       H  0.67039391  0.64343488  0.34355212     0.06400
C2269       C  0.62670724  0.92291562  0.29789215     0.03500
C2270       C  0.60914872  0.89149585  0.99345828    -0.12700
C2271       C  0.58367308  0.88475926  0.03527164     0.01000
C2272       C  0.57862490  0.91061493  0.04886070    -0.11200
C2273       C  0.59441228  0.94030815  0.01881868     0.03500
C2274       C  0.61843964  0.94630520  0.31226859    -0.10600
H2275       H  0.61406286  0.87233537  0.98203591     0.09100
H2276       H  0.56186117  0.90803980  0.08242192     0.06600
H2277       H  0.62893144  0.96877190  0.28855931     0.06400
C2278       C  0.87856233  0.79229032  0.03303076     0.03500
C2279       C  0.89629060  0.82621995  0.04229394    -0.12700
C2280       C  0.92756721  0.84701414  0.01805402     0.01000
C2281       C  0.94074544  0.83444181  0.31302693    -0.11200
C2282       C  0.92554721  0.80011482  0.30414813     0.03500
C2283       C  0.89324055  0.77882016  0.99752273    -0.10100
H2284       H  0.88540308  0.83668917  0.06919150     0.09100
H2285       H  0.96193293  0.85230099  0.28825323     0.06600
H2286       H  0.87980552  0.75232183  0.32459173     0.06400
C2287       C  0.77571556  0.86495401  0.29149309     0.03500
C2288       C  0.75666156  0.87995483  0.30762698    -0.12700
C2289       C  0.77244475  0.90888895  0.01033686     0.01000
C2290       C  0.80627912  0.92155878  0.02810380    -0.11200
C2291       C  0.82505081  0.90805614  0.34375490     0.03500
C2292       C  0.80901870  0.87861830  0.31368626    -0.10600
H2293       H  0.73095617  0.87019635  0.95776585     0.09100
H2294       H  0.81870675  0.94320730  0.05531436     0.06600
H2295       H  0.82354846  0.86719886  0.30427288     0.06400
O2296       O  0.94222888  0.96180184  0.08939208    -0.88000
C2297       C  0.00744124  0.97424235  0.28949218     0.88000
Mg2298     Mg  0.92191781  0.49274862  0.09123599     1.58100
O2299       O  0.54517234  0.99967513  0.09276904    -0.87700
O2300       O  0.97200247  0.94422007  0.13453615    -0.75100
C2301       C  0.55101089  0.63927663  0.37924365     0.93100
O2302       O  0.93508581  0.98058900  0.28607785    -0.74900
O2303       O  0.51888029  0.62235752  0.37497152    -0.82400
Mg2304     Mg  0.93573764  0.94014591  0.33877056     1.58000
C2305       C  0.63687665  0.59077862  0.08204957     0.93000
O2306       O  0.92995814  0.89526360  0.04978714    -0.80600
H2307       H  0.55305258  0.99266284  0.17476387    -0.06000
C2308       C  0.55117378  0.56645131  0.31017838     0.87900
O2309       O  0.96398410  0.52866563  0.15555174    -0.75100
O2310       O  0.99293550  0.96989755  0.33672380    -0.87900
O2311       O  0.61936903  0.55972573  0.08991110    -0.80700
C2312       C  0.58074326  0.96201910  0.35442618     0.93100
C2313       C  0.94600737  0.88222096  0.03259460     0.93000
Mg2314     Mg  0.56467547  0.58219003  0.10347910     1.58000
O2315       O  0.56877700  0.62722814  0.39594039    -0.80600
O2316       O  0.56154582  0.53851994  0.15609081    -0.74900
O2317       O  0.54930170  0.94937550  0.34355189    -0.80700
O2318       O  0.87918939  0.91319193  0.34254574    -0.82400
O2319       O  0.94882089  0.56977721  0.08833037    -0.80800
C2320       C  0.55300035  0.50921850  0.14257306     0.87400
O2321       O  0.50993161  0.55899973  0.10594681    -0.87900
O2322       O  0.55735732  0.55766729  0.35655265    -0.88000
O2323       O  0.52613035  0.57063408  0.30362112    -0.75100
Mg2324     Mg  0.01161622  0.94940303  0.06870871     1.58000
O2325       O  0.59981630  0.99275617  0.36397859    -0.82400
H2326       H  0.93303311  0.94593925  0.17044242    -0.06200
O2327       O  0.95409639  0.51712034  0.35301068    -0.87700
H2328       H  0.94157096  0.52611978  0.27528317    -0.06000
H2329       H  0.50923784  0.56450131  0.19026581    -0.06200
C2330       C  0.94338384  0.50888413  0.30372465     0.87400
C2331       C  0.94824314  0.95055137  0.13301668     0.88000
C2332       C  0.99528211  0.55143141  0.15215140     0.88000
H2333       H  0.56683791  0.56977043  0.27403287    -0.06100
O2334       O  0.53952103  0.99424164  0.28614508    -0.75200
Mg2335     Mg  0.98689973  0.56857805  0.36539550     1.58000
H2336       H  0.99264705  0.96095058  0.25208090    -0.06200
C2337       C  0.86206091  0.92629818  0.35404745     0.93000
O2338       O  0.89903241  0.52466887  0.07710926    -0.82400
C2339       C  0.91817361  0.55559253  0.07049777     0.93100
O2340       O  0.97802542  0.89912048  0.03039222    -0.82400
Mg2341     Mg  0.57865676  0.52671498  0.35777262     1.58200
O2342       O  0.87598991  0.95535881  0.37401596    -0.80700
O2343       O  0.62303818  0.60766951  0.08935810    -0.82400
C2344       C  0.99448456  0.75254342  0.14819713    -0.02100
C2345       C  0.74458740  0.49830255  0.14280242    -0.02100
C2346       C  0.74645256  0.74921824  0.14315797    -0.02100
C2347       C  0.75771955  0.92946710  0.02959779     0.00200
C2348       C  0.77850665  0.96433729  0.02486065    -0.11700
C2349       C  0.77433323  0.98595359  0.05961448     0.02400
C2350       C  0.74776061  0.97404836  0.09961797     0.00100
C2351       C  0.72359397  0.93906052  0.09683765    -0.11600
C2352       C  0.72922121  0.91710223  0.06499671     0.02300
H2353       H  0.80051606  0.97486412  0.99743931     0.15300
H2354       H  0.70058169  0.92777144  0.12142533     0.15300
C2355       C  0.70678825  0.88189921  0.07289582     0.36900
C2356       C  0.80034060  0.52024130  0.05833072     0.36900
N2357       N  0.68894911  0.85366689  0.07956515    -0.43400
N2358       N  0.82152963  0.54777345  0.06142082    -0.43400
C2359       C  0.76483603  0.83676051  0.24943631     0.00200
C2360       C  0.73409202  0.80621190  0.25375686    -0.11700
C2361       C  0.72709790  0.77838012  0.22022044     0.02400
C2362       C  0.75271483  0.77883650  0.18489155     0.00100
C2363       C  0.78285430  0.81072827  0.17998362    -0.11600
C2364       C  0.78812798  0.83890089  0.20857028     0.02300
H2365       H  0.71500485  0.80421006  0.28259325     0.15300
H2366       H  0.80125317  0.81573685  0.14764975     0.15300
C2367       C  0.81720707  0.87057519  0.19190422     0.36900
C2368       C  0.69197426  0.75168331  0.21959233     0.36900
N2369       N  0.84040718  0.89582856  0.17837382    -0.43400
N2370       N  0.66314705  0.73171294  0.21985793    -0.43400
C2371       C  0.84445970  0.77366844  0.06103529     0.00200
C2372       C  0.81496103  0.76197525  0.02717192    -0.11700
C2373       C  0.78365334  0.75492288  0.05013103     0.02400
C2374       C  0.78045894  0.75879232  0.11013960     0.00100
C2375       C  0.81072780  0.76979704  0.14356592    -0.11600
C2376       C  0.84182641  0.77736543  0.12011336     0.02300
H2377       H  0.81695546  0.76039794  0.98137932     0.15300
H2378       H  0.80992491  0.77226403  0.18936479     0.15300
C2379       C  0.87160334  0.79170293  0.15722443     0.36900
C2380       C  0.75653747  0.74433870  0.00863646     0.36900
N2381       N  0.89581957  0.80448452  0.18612892    -0.43400
N2382       N  0.73549222  0.73593998  0.97369900    -0.43400
C2383       C  0.94287425  0.78737769  0.26572345     0.00200
C2384       C  0.92281315  0.75976584  0.23056951    -0.11700
C2385       C  0.93736889  0.74938300  0.18936467     0.02400
C2386       C  0.97358908  0.76181802  0.19003794     0.00100
C2387       C  0.99306330  0.78898580  0.22624558    -0.11600
C2388       C  0.97895473  0.80332322  0.25895314     0.02300
H2389       H  0.89531404  0.74853156  0.23036890     0.15300
H2390       H  0.52056786  0.80112955  0.22597194     0.15300
C2391       C  0.00327995  0.83651045  0.27721572     0.36900
C2392       C  0.91425270  0.73048473  0.14309023     0.36900
N2393       N  0.02330203  0.86395871  0.28690758    -0.43400
N2394       N  0.89510309  0.71580382  0.10636382    -0.43400
C2395       C  0.51990053  0.78685561  0.11747774     0.00200
C2396       C  0.50520813  0.80292740  0.08935537    -0.11700
C2397       C  0.52507978  0.83586548  0.07117760     0.02400
C2398       C  0.56106390  0.85107902  0.06337459     0.00100
C2399       C  0.57623485  0.83567732  0.09157190    -0.11600
C2400       C  0.55658081  0.80747773  0.12604987     0.02300
H2401       H  0.97761623  0.79121207  0.08908324     0.15300
H2402       H  0.60390210  0.84885709  0.09468898     0.15300
C2403       C  0.57449314  0.80624677  0.17677147     0.36900
C2404       C  0.50915530  0.85431109  0.08211816     0.36900
N2405       N  0.58919738  0.80628283  0.21764905    -0.43400
N2406       N  0.99610375  0.86763685  0.09912043    -0.43400
C2407       C  0.71206127  0.97564524  0.18114037     0.00200
C2408       C  0.68071541  0.97409500  0.17261290    -0.11700
C2409       C  0.65124815  0.95188941  0.20297028     0.02400
C2410       C  0.65287089  0.93392548  0.25092933     0.00100
C2411       C  0.68342070  0.93433918  0.25954516    -0.11600
C2412       C  0.71179823  0.95319180  0.22366529     0.02300
H2413       H  0.67806279  0.98973963  0.14202648     0.15300
H2414       H  0.68534310  0.92017087  0.29465300     0.15300
C2415       C  0.73930881  0.94693746  0.22858601     0.36900
C2416       C  0.61942645  0.94908400  0.18533384     0.36900
N2417       N  0.76091935  0.94121951  0.23022938    -0.43400
N2418       N  0.59396578  0.94710790  0.17229223    -0.43400
C2419       C  0.74218700  0.52586420  0.10429836     0.00200
C2420       C  0.71585484  0.51564993  0.06165878    -0.11700
C2421       C  0.70913647  0.53860640  0.03370814     0.02400
C2422       C  0.72971018  0.57276817  0.04389997     0.00100
C2423       C  0.75845200  0.58376593  0.07818917    -0.11600
C2424       C  0.76576185  0.56164470  0.10621351     0.02300
H2425       H  0.69904912  0.48950696  0.05277981     0.15300
H2426       H  0.77488361  0.61027153  0.08486009     0.15300
C2427       C  0.79900438  0.57900701  0.13324597     0.36900
C2428       C  0.68058321  0.52837050  0.32837008     0.36900
N2429       N  0.82606483  0.59512735  0.15306669    -0.43400
N2430       N  0.66007513  0.52576560  0.29561847    -0.43400
C2431       C  0.73587324  0.71569946  0.18001897     0.00200
C2432       C  0.70195227  0.69383135  0.19836195    -0.11700
C2433       C  0.69276480  0.66608024  0.23426316     0.02400
C2434       C  0.71803078  0.66203365  0.26276592     0.00100
C2435       C  0.75100094  0.68120560  0.24109978    -0.11600
C2436       C  0.75802199  0.70324096  0.19454729     0.02300
H2437       H  0.68145630  0.69601069  0.18047860     0.15300
H2438       H  0.77030344  0.67590457  0.25522668     0.15300
C2439       C  0.77952132  0.70101871  0.15312608     0.36900
C2440       C  0.65759265  0.63924612  0.23257718     0.36900
N2441       N  0.79612137  0.69785655  0.12047508    -0.43400
N2442       N  0.62963817  0.61725556  0.22965335    -0.43400
C2443       C  0.65826121  0.73401927  0.03563342     0.00200
C2444       C  0.68312706  0.76585666  0.05199048    -0.11700
C2445       C  0.71359780  0.77196722  0.07922904     0.02400
C2446       C  0.71744174  0.74502678  0.09956650     0.00100
C2447       C  0.69374822  0.71369466  0.07616911    -0.11600
C2448       C  0.66589604  0.70885589  0.04214981     0.02300
H2449       H  0.67882495  0.78597921  0.04344243     0.15300
H2450       H  0.69753473  0.69314667  0.08279204     0.15300
C2451       C  0.64376055  0.67747327  0.01491962     0.36900
C2452       C  0.74025356  0.80633647  0.08158568     0.36900
N2453       N  0.62422261  0.65319839  0.99192559    -0.43400
N2454       N  0.76062816  0.83433170  0.08153518    -0.43400
C2455       C  0.51589039  0.73961042  0.18012278     0.00200
C2456       C  0.50631464  0.72596791  0.23477217    -0.11700
C2457       C  0.52492215  0.71540370  0.26675682     0.02400
C2458       C  0.55630856  0.72088313  0.24674687     0.00100
C2459       C  0.56408540  0.73028077  0.18967656    -0.11600
C2460       C  0.54285885  0.73720693  0.15510326     0.02300
H2461       H  0.98312769  0.72227020  0.25194745     0.15300
H2462       H  0.58626135  0.73148879  0.17172278     0.15300
C2463       C  0.55287812  0.74592797  0.09657858     0.36900
C2464       C  0.51015829  0.69694188  0.31866213     0.36900
N2465       N  0.56313210  0.75452940  0.05101845    -0.43400
N2466       N  0.49951223  0.68129940  0.02649224    -0.43400
C2467       C  0.96827032  0.72167059  0.11068266     0.00200
C2468       C  0.94623821  0.69194529  0.14035506    -0.11700
C2469       C  0.92359407  0.66211765  0.11316236     0.02400
C2470       C  0.92108438  0.65991848  0.05286875     0.00100
C2471       C  0.94036456  0.68979408  0.02212117    -0.11600
C2472       C  0.96456694  0.72002040  0.05028195     0.02300
H2473       H  0.94628903  0.69168823  0.18632956     0.15300
H2474       H  0.93946673  0.68861514  0.97601631     0.15300
C2475       C  0.48928396  0.74714859  0.01685368     0.36900
C2476       C  0.90610241  0.63323582  0.14935642     0.36900
N2477       N  0.51161147  0.76925508  0.99346363    -0.43400
N2478       N  0.89366208  0.61027622  0.17893055    -0.43400
C2479       C  0.77562309  0.51673477  0.18779794     0.00200
C2480       C  0.80485821  0.51397791  0.18692979    -0.11700
C2481       C  0.83429042  0.53388218  0.22121058     0.02400
C2482       C  0.83532550  0.55657581  0.26152370     0.00100
C2483       C  0.80528148  0.55737332  0.26658846    -0.11600
C2484       C  0.77591973  0.53778598  0.23151330     0.02300
H2485       H  0.80545314  0.49648208  0.15877832     0.15300
H2486       H  0.80480187  0.57385882  0.96427480     0.15300
C2487       C  0.74867959  0.54431857  0.23454943     0.36900
C2488       C  0.86367991  0.53105669  0.21230150     0.36900
N2489       N  0.72767267  0.05084410  0.23357604    -0.43400
N2490       N  0.88716516  0.52865499  0.20548849    -0.43400
C2491       C  0.90728639  0.62630873  0.35868579     0.03500
C2492       C  0.92146851  0.60829105  0.38051345    -0.12700
C2493       C  0.90581179  0.57448340  0.70499208     0.01000
C2494       C  0.87903960  0.55899702  0.66477262    -0.11200
C2495       C  0.86589498  0.57641120  0.63554749     0.03500
C2496       C  0.87943274  0.61034952  0.31824897    -0.10600
H2497       H  0.94328900  0.62023403  0.40964048     0.09100
H2498       H  0.86722280  0.53262799  0.65813885     0.06600
H2499       H  0.86812346  0.62376007  0.63389140     0.06400
C2500       C  0.62215977  0.72426960  0.35500744     0.03500
C2501       C  0.59787697  0.69710187  0.38650885    -0.12700
C2502       C  0.56852075  0.67299461  0.35881737     0.01000
C2503       C  0.55943309  0.67942976  0.63887995    -0.11200
C2504       C  0.57703499  0.71145352  0.61679275     0.03500
C2505       C  0.61076134  0.73364775  0.63840448    -0.10600
H2506       H  0.60528130  0.69091591  0.42696777     0.09100
H2507       H  0.53626932  0.66044578  0.61757171     0.06600
H2508       H  0.62745338  0.75688599  0.61697761     0.06400
C2509       C  0.70974455  0.63702150  0.64492722     0.03500
C2510       C  0.72666896  0.61910317  0.32124721    -0.12700
C2511       C  0.71622066  0.59521763  0.36616136     0.01000
C2512       C  0.68901011  0.58915095  0.40030927    -0.11200
C2513       C  0.67145341  0.60544708  0.72432685     0.03500
C2514       C  0.68323390  0.63037529  0.68245460    -0.10600
H2515       H  0.74670608  0.62261178  0.29328727     0.09100
H2516       H  0.68001590  0.56979962  0.43252740     0.06600
H2517       H  0.67039328  0.64343416  0.67688508     0.06400
C2518       C  0.62670734  0.92291533  0.63122603     0.03500
C2519       C  0.60914837  0.89149582  0.32679161    -0.12700
C2520       C  0.58367302  0.88475947  0.36860539     0.01000
C2521       C  0.57862523  0.91061535  0.38219478    -0.11200
C2522       C  0.59441250  0.94030847  0.35215241     0.03500
C2523       C  0.61843975  0.94630483  0.64560303    -0.10600
H2524       H  0.61406228  0.87233522  0.31536910     0.09100
H2525       H  0.56186182  0.90804042  0.41575639     0.06600
H2526       H  0.62893181  0.96877178  0.62189442     0.06400
C2527       C  0.87856201  0.79229084  0.36636412     0.03500
C2528       C  0.89629053  0.82622040  0.37562815    -0.12700
C2529       C  0.92756729  0.84701459  0.35138868     0.01000
C2530       C  0.94074540  0.83444141  0.64636107    -0.11200
C2531       C  0.92554715  0.80011445  0.63748199     0.03500
C2532       C  0.89324015  0.77882075  0.33085572    -0.10100
H2533       H  0.88540308  0.83668957  0.40252602     0.09100
H2534       H  0.96193301  0.85230067  0.62158767     0.06600
H2535       H  0.87980546  0.75232141  0.65792530     0.06400
C2536       C  0.77571496  0.86495364  0.62482724     0.03500
C2537       C  0.75666123  0.87995482  0.64096075    -0.12700
C2538       C  0.77244462  0.90888844  0.34367154     0.01000
C2539       C  0.80627895  0.92155819  0.36143874    -0.11200
C2540       C  0.82505028  0.90805545  0.67708934     0.03500
C2541       C  0.80901797  0.87861757  0.64702084    -0.10600
H2542       H  0.73095619  0.87019606  0.29110004     0.09100
H2543       H  0.81870649  0.94320658  0.38864962     0.06600
H2544       H  0.82354753  0.86719789  0.63760770     0.06400
O2545       O  0.94222904  0.96180225  0.42272635    -0.88000
C2546       C  0.00744079  0.97424133  0.62282596     0.88000
Mg2547     Mg  0.92191784  0.49274893  0.42456950     1.58100
O2548       O  0.54517269  0.99967569  0.42610295    -0.87700
O2549       O  0.97200298  0.94422095  0.46787069    -0.75100
C2550       C  0.55101070  0.63927593  0.71257465     0.93100
O2551       O  0.93508515  0.98058790  0.61941124    -0.74900
O2552       O  0.51888011  0.62235677  0.70830235    -0.82400
Mg2553     Mg  0.93573714  0.94014506  0.67210440     1.58000
C2554       C  0.63687689  0.59077920  0.41538310     0.93000
O2555       O  0.92995864  0.89526403  0.38312311    -0.80600
H2556       H  0.55305318  0.99266366  0.50809778    -0.06000
C2557       C  0.55117336  0.56645019  0.64351084     0.87900
O2558       O  0.96398411  0.52866621  0.48888505    -0.75100
O2559       O  0.99293506  0.96989674  0.67005753    -0.87900
O2560       O  0.61936928  0.55972630  0.42324464    -0.80700
C2561       C  0.58074294  0.96201829  0.68776031     0.93100
C2562       C  0.94600766  0.88222133  0.36592992     0.93000
Mg2563     Mg  0.56467559  0.58219052  0.43681244     1.58000
O2564       O  0.56877680  0.62722752  0.72927185    -0.80600
O2565       O  0.56154616  0.53852064  0.48942443    -0.74900
O2566       O  0.54930134  0.94937462  0.67688630    -0.80700
O2567       O  0.87918881  0.91319107  0.67587971    -0.82400
O2568       O  0.94882081  0.56977745  0.42166310    -0.80800
C2569       C  0.55300080  0.50921921  0.47590689     0.87400
O2570       O  0.50993167  0.55900010  0.43928007    -0.87900
O2571       O  0.55735705  0.55766651  0.68988533    -0.88000
O2572       O  0.52612982  0.57063278  0.63695332    -0.75100
Mg2573     Mg  0.01161655  0.94940352  0.40204316     1.58000
O2574       O  0.59981598  0.99275539  0.69731245    -0.82400
H2575       H  0.93303377  0.94594032  0.50377709    -0.06200
O2576       O  0.95409593  0.51711943  0.68634366    -0.87700
H2577       H  0.94157022  0.52611863  0.60861620    -0.06000
H2578       H  0.50923785  0.56450203  0.52359895    -0.06200
C2579       C  0.94338320  0.50888307  0.63705776     0.87400
C2580       C  0.94824360  0.95055218  0.46635118     0.88000
C2581       C  0.99528213  0.55143194  0.48548465     0.88000
H2582       H  0.56683743  0.56976913  0.60736535    -0.06100
O2583       O  0.53952059  0.99424054  0.61947879    -0.75200
Mg2584     Mg  0.98689938  0.56857719  0.69872761     1.58000
H2585       H  0.99264659  0.96094942  0.58541480    -0.06200
C2586       C  0.86206040  0.92629737  0.68738169     0.93000
O2587       O  0.89903238  0.52466909  0.41044197    -0.82400
C2588       C  0.91817357  0.55559274  0.40383031     0.93100
O2589       O  0.97802570  0.89912080  0.36372716    -0.82400
Mg2590     Mg  0.57865644  0.52671420  0.69110593     1.58200
O2591       O  0.87598951  0.95535799  0.70735023    -0.80700
O2592       O  0.62303836  0.60767007  0.42269141    -0.82400
C2593       C  0.99448411  0.75254325  0.48152997    -0.02100
C2594       C  0.74458726  0.49830250  0.47613568    -0.02100
C2595       C  0.74645207  0.74921808  0.47649168    -0.02100
C2596       C  0.75771945  0.92946667  0.36293215     0.00200
C2597       C  0.77850662  0.96433682  0.35819481    -0.11700
C2598       C  0.77433315  0.98595326  0.39294813     0.02400
C2599       C  0.74776044  0.97404819  0.43295144     0.00100
C2600       C  0.72359373  0.93906036  0.43017125    -0.11600
C2601       C  0.72922098  0.91710193  0.39833076     0.02300
H2602       H  0.80051612  0.97486353  0.33077368     0.15300
H2603       H  0.70058137  0.92777140  0.45475873     0.15300
C2604       C  0.70678786  0.88189894  0.40622996     0.36900
C2605       C  0.80034065  0.52024094  0.39166425     0.36900
N2606       N  0.68894855  0.85366665  0.41289939    -0.43400
N2607       N  0.82152990  0.54777301  0.39475425    -0.43400
C2608       C  0.76483540  0.83676026  0.58277020     0.00200
C2609       C  0.73409132  0.80621166  0.58709046    -0.11700
C2610       C  0.72709727  0.77837989  0.55355407     0.02400
C2611       C  0.75271427  0.77883629  0.51822533     0.00100
C2612       C  0.78285378  0.81072805  0.51331765    -0.11600
C2613       C  0.78812746  0.83890063  0.54190442     0.02300
H2614       H  0.71500409  0.80420980  0.61592674     0.15300
H2615       H  0.80125275  0.81573669  0.48098395     0.15300
C2616       C  0.81720689  0.87057487  0.52523902     0.36900
C2617       C  0.69197370  0.75168294  0.55292601     0.36900
N2618       N  0.84040733  0.89582817  0.51170924    -0.43400
N2619       N  0.66314653  0.73171240  0.55319161    -0.43400
C2620       C  0.84445930  0.77366893  0.39436847     0.00200
C2621       C  0.81496066  0.76197597  0.36050511    -0.11700
C2622       C  0.78365290  0.75492329  0.38346443     0.02400
C2623       C  0.78045846  0.75879232  0.44347316     0.00100
C2624       C  0.81072734  0.76979699  0.47689937    -0.11600
C2625       C  0.84182596  0.77736553  0.45344667     0.02300
H2626       H  0.81695512  0.76039897  0.31471244     0.15300
H2627       H  0.80992443  0.77226376  0.52269831     0.15300
C2628       C  0.87160282  0.79170263  0.49055787     0.36900
C2629       C  0.75653701  0.74433920  0.34196995     0.36900
N2630       N  0.89581898  0.80448385  0.51946256    -0.43400
N2631       N  0.73549168  0.73594051  0.30703265    -0.43400
C2632       C  0.94287414  0.78737736  0.59905714     0.00200
C2633       C  0.92281293  0.75976558  0.56390312    -0.11700
C2634       C  0.93736857  0.74938279  0.52269803     0.02400
C2635       C  0.97358872  0.76181770  0.52337120     0.00100
C2636       C  0.99306304  0.78898530  0.55957915    -0.11600
C2637       C  0.97895459  0.80332281  0.59228676     0.02300
H2638       H  0.89531384  0.74853136  0.56370261     0.15300
H2639       H  0.52056761  0.80112894  0.55930549     0.15300
C2640       C  0.00327990  0.83651010  0.61054895     0.36900
C2641       C  0.91425230  0.73048470  0.47642355     0.36900
N2642       N  0.02330209  0.86395838  0.62024045    -0.43400
N2643       N  0.89510261  0.71580394  0.43969714    -0.43400
C2644       C  0.51990009  0.78685563  0.45081090     0.00200
C2645       C  0.50520781  0.80292779  0.42268932    -0.11700
C2646       C  0.52507965  0.83586598  0.40451197     0.02400
C2647       C  0.56106369  0.85107924  0.39670834     0.00100
C2648       C  0.57623449  0.83567718  0.42490490    -0.11600
C2649       C  0.55658040  0.80747758  0.45938280     0.02300
H2650       H  0.97761592  0.79121264  0.42241752     0.15300
H2651       H  0.60390174  0.84885673  0.42802163     0.15300
C2652       C  0.57449275  0.80624654  0.51010430     0.36900
C2653       C  0.50915563  0.85431192  0.41545355     0.36900
N2654       N  0.58919702  0.80628255  0.55098180    -0.43400
N2655       N  0.99610457  0.86763798  0.43245652    -0.43400
C2656       C  0.71206126  0.97564525  0.51447393     0.00200
C2657       C  0.68071543  0.97409513  0.50594687    -0.11700
C2658       C  0.65124823  0.95188956  0.53630442     0.02400
C2659       C  0.65287100  0.93392544  0.58426315     0.00100
C2660       C  0.68342081  0.93433911  0.59287868    -0.11600
C2661       C  0.71179829  0.95319180  0.55699878     0.02300
H2662       H  0.67806282  0.98973987  0.47536070     0.15300
H2663       H  0.68534325  0.92017073  0.62798636     0.15300
C2664       C  0.73930898  0.94693762  0.56191958     0.36900
C2665       C  0.61942657  0.94908439  0.51866847     0.36900
N2666       N  0.76091963  0.94121982  0.56356316    -0.43400
N2667       N  0.59396595  0.94710849  0.50562725    -0.43400
C2668       C  0.74218683  0.52586409  0.43763147     0.00200
C2669       C  0.71585445  0.51564981  0.39499228    -0.11700
C2670       C  0.70913607  0.53860632  0.36704179     0.02400
C2671       C  0.72970997  0.57276811  0.37723332     0.00100
C2672       C  0.75845199  0.58376583  0.41152198    -0.11600
C2673       C  0.76576182  0.56164456  0.43954623     0.02300
H2674       H  0.69904860  0.48950683  0.38611355     0.15300
H2675       H  0.77488378  0.61027144  0.41819261     0.15300
C2676       C  0.79900444  0.57900681  0.46657835     0.36900
C2677       C  0.68058365  0.52837069  0.66170432     0.36900
N2678       N  0.82606494  0.59512710  0.48639885    -0.43400
N2679       N  0.66007535  0.52576554  0.62895299    -0.43400
C2680       C  0.73587283  0.71569927  0.51335260     0.00200
C2681       C  0.70195184  0.69383092  0.53169537    -0.11700
C2682       C  0.69276450  0.66607976  0.56759642     0.02400
C2683       C  0.71803059  0.66203346  0.59609948     0.00100
C2684       C  0.75100078  0.68120569  0.57443367    -0.11600
C2685       C  0.75802176  0.70324101  0.52788115     0.02300
H2686       H  0.68145579  0.69601016  0.51381206     0.15300
H2687       H  0.77030341  0.67590488  0.58856080     0.15300
C2688       C  0.77952119  0.70101885  0.48646004     0.36900
C2689       C  0.65759249  0.63924532  0.56590997     0.36900
N2690       N  0.79612138  0.69785682  0.45380914    -0.43400
N2691       N  0.62963815  0.61725451  0.56298594    -0.43400
C2692       C  0.65826093  0.73401937  0.36896691     0.00200
C2693       C  0.68312687  0.76585673  0.38532395    -0.11700
C2694       C  0.71359753  0.77196716  0.41256261     0.02400
C2695       C  0.71744125  0.74502663  0.43290029     0.00100
C2696       C  0.69374770  0.71369455  0.40950285    -0.11600
C2697       C  0.66589562  0.70885589  0.37548339     0.02300
H2698       H  0.67882491  0.78597937  0.37677576     0.15300
H2699       H  0.69753415  0.69314653  0.41612577     0.15300
C2700       C  0.64376018  0.67747331  0.34825304     0.36900
C2701       C  0.74025353  0.80633632  0.41491897     0.36900
N2702       N  0.62422242  0.65319840  0.32525889    -0.43400
N2703       N  0.76062842  0.83433146  0.41486830    -0.43400
C2704       C  0.51588996  0.73961013  0.51345525     0.00200
C2705       C  0.50631423  0.72596739  0.56810454    -0.11700
C2706       C  0.52492187  0.71540322  0.60008896     0.02400
C2707       C  0.55630835  0.72088289  0.58007892     0.00100
C2708       C  0.56408513  0.73028068  0.52300863    -0.11600
C2709       C  0.54285848  0.73720682  0.48843553     0.02300
H2710       H  0.98312725  0.72226956  0.58528005     0.15300
H2711       H  0.58626113  0.73148887  0.50505473     0.15300
C2712       C  0.55287781  0.74592816  0.42991094     0.36900
C2713       C  0.51015809  0.69694122  0.65199414     0.36900
N2714       N  0.56313185  0.75452994  0.38435093    -0.43400
N2715       N  0.49951173  0.68129979  0.35982557    -0.43400
C2716       C  0.96826975  0.72167051  0.44401537     0.00200
C2717       C  0.94623768  0.69194511  0.47368757    -0.11700
C2718       C  0.92359361  0.66211750  0.44649471     0.02400
C2719       C  0.92108391  0.65991845  0.38620108     0.00100
C2720       C  0.94036392  0.68979418  0.35545370    -0.11600
C2721       C  0.96456622  0.72002048  0.38361469     0.02300
H2722       H  0.94628853  0.69168793  0.51966208     0.15300
H2723       H  0.93946608  0.68861538  0.30934882     0.15300
C2724       C  0.48928309  0.74714890  0.35018669     0.36900
C2725       C  0.90610212  0.63323557  0.48268860     0.36900
N2726       N  0.51161059  0.76925557  0.32679694    -0.43400
N2727       N  0.89366197  0.61027590  0.51226260    -0.43400
C2728       C  0.77562298  0.51673480  0.52113109     0.00200
C2729       C  0.80485800  0.51397777  0.52026311    -0.11700
C2730       C  0.83429022  0.53388198  0.55454385     0.02400
C2731       C  0.83532541  0.55657570  0.59485688     0.00100
C2732       C  0.80528150  0.55737344  0.59992146    -0.11600
C2733       C  0.77591974  0.53778617  0.56484627     0.02300
H2734       H  0.80545282  0.49648180  0.49211188     0.15300
H2735       H  0.80480121  0.57385799  0.29760824     0.15300
C2736       C  0.74867963  0.54431883  0.56788241     0.36900
C2737       C  0.86367957  0.53105625  0.54563487     0.36900
N2738       N  0.72767275  0.05084440  0.56690913    -0.43400
N2739       N  0.88716466  0.52865429  0.53882190    -0.43400
C2740       C  0.90728620  0.62630816  0.69201973     0.03500
C2741       C  0.92146827  0.60829039  0.71384700    -0.12700
C2742       C  0.90581206  0.57448385  0.03832671     0.01000
C2743       C  0.87903991  0.55899747  0.99810715    -0.11200
C2744       C  0.86589544  0.57641167  0.96888166     0.03500
C2745       C  0.87943264  0.61034917  0.65158271    -0.10600
H2746       H  0.94328880  0.62023326  0.74297397     0.09100
H2747       H  0.86722308  0.53262843  0.99147342     0.06600
H2748       H  0.86812413  0.62376064  0.96722487     0.06400
C2749       C  0.62215944  0.72426927  0.68833979     0.03500
C2750       C  0.59787662  0.69710121  0.71984056    -0.12700
C2751       C  0.56852061  0.67299398  0.69214856     0.01000
C2752       C  0.55943348  0.67942969  0.97221499    -0.11200
C2753       C  0.57703541  0.71145326  0.95012705     0.03500
C2754       C  0.61076182  0.73364756  0.97173836    -0.10600
H2755       H  0.60528084  0.69091512  0.76029946     0.09100
H2756       H  0.53626963  0.66044561  0.95090709     0.06600
H2757       H  0.62745386  0.75688563  0.95031099     0.06400
C2758       C  0.70974418  0.63702110  0.97825955     0.03500
C2759       C  0.72666916  0.61910335  0.65458122    -0.12700
C2760       C  0.71622095  0.59521786  0.69949544     0.01000
C2761       C  0.68901021  0.58915094  0.73364311    -0.11200
C2762       C  0.67145327  0.60544684  0.05765960     0.03500
C2763       C  0.68323367  0.63037498  0.01578721    -0.10600
H2764       H  0.74670643  0.62261212  0.62662147     0.09100
H2765       H  0.68001606  0.56979964  0.76586128     0.06600
H2766       H  0.67039317  0.64343393  0.01021789     0.06400
C2767       C  0.62670759  0.92291572  0.96455906     0.03500
C2768       C  0.60914843  0.89149536  0.66012495    -0.12700
C2769       C  0.58367292  0.88475872  0.70193862     0.01000
C2770       C  0.57862489  0.91061442  0.71552819    -0.11200
C2771       C  0.59441226  0.94030773  0.68548637     0.03500
C2772       C  0.61843982  0.94630516  0.97893554    -0.10600
H2773       H  0.61406244  0.87233486  0.64870216     0.09100
H2774       H  0.56186127  0.90803924  0.74908965     0.06600
H2775       H  0.62893175  0.96877199  0.95522666     0.06400
C2776       C  0.87856185  0.79229031  0.69969778     0.03500
C2777       C  0.89629028  0.82621985  0.70896195    -0.12700
C2778       C  0.92756710  0.84701410  0.68472275     0.01000
C2779       C  0.94074548  0.83444125  0.97969271    -0.11200
C2780       C  0.92554744  0.80011422  0.97081469     0.03500
C2781       C  0.89324007  0.77882031  0.66418941    -0.10100
H2782       H  0.88540274  0.83668895  0.73585976     0.09100
H2783       H  0.96193291  0.85230034  0.95491878     0.06600
H2784       H  0.87980608  0.75232121  0.99125931     0.06400
C2785       C  0.77571549  0.86495421  0.95815908     0.03500
C2786       C  0.75666157  0.87995518  0.97429267    -0.12700
C2787       C  0.77244443  0.90888837  0.67700544     0.01000
C2788       C  0.80627864  0.92155778  0.69477298    -0.11200
C2789       C  0.82505083  0.90805649  0.01042039     0.03500
C2790       C  0.80901859  0.87861847  0.98035232    -0.10600
H2791       H  0.73095599  0.87019634  0.62443344     0.09100
H2792       H  0.81870629  0.94320615  0.72198389     0.06600
H2793       H  0.82354822  0.86719883  0.97093942     0.06400
O2794       O  0.94222869  0.96180167  0.75606004    -0.88000
C2795       C  0.00744119  0.97424225  0.95615797     0.88000
Mg2796     Mg  0.92191758  0.49274837  0.75790287     1.58100
O2797       O  0.54517243  0.99967522  0.75943654    -0.87700
O2798       O  0.97200272  0.94422058  0.80120471    -0.75100
C2799       C  0.55101108  0.63927635  0.04591047     0.93100
O2800       O  0.93508600  0.98058939  0.95274390    -0.74900
O2801       O  0.51888047  0.62235738  0.04163865    -0.82400
Mg2802     Mg  0.93573756  0.94014594  0.00543578     1.58000
C2803       C  0.63687662  0.59077869  0.74871613     0.93000
O2804       O  0.92995830  0.89526341  0.71645739    -0.80600
H2805       H  0.55305295  0.99266350  0.84143150    -0.06000
C2806       C  0.55117361  0.56645100  0.97684497     0.87900
O2807       O  0.96398404  0.52866591  0.82221785    -0.75100
O2808       O  0.99293537  0.96989734  0.00338952    -0.87900
O2809       O  0.61936912  0.55972578  0.75657764    -0.80700
C2810       C  0.58074304  0.96201876  0.02109224     0.93100
C2811       C  0.94600739  0.88222078  0.69926424     0.93000
Mg2812     Mg  0.56467530  0.58219004  0.77014476     1.58000
O2813       O  0.56877710  0.62722775  0.06260709    -0.80600
O2814       O  0.56154588  0.53852039  0.82275748    -0.74900
O2815       O  0.54930152  0.94937522  0.01021758    -0.80700
O2816       O  0.87918934  0.91319220  0.00921047    -0.82400
O2817       O  0.94882071  0.56977685  0.75499542    -0.80800
C2818       C  0.55300053  0.50921891  0.80924030     0.87400
O2819       O  0.50993145  0.55899964  0.77261242    -0.87900
O2820       O  0.55735713  0.55766690  0.02321917    -0.88000
O2821       O  0.52613024  0.57063389  0.97028783    -0.75100
Mg2822     Mg  0.01161625  0.94940299  0.73537729     1.58000
O2823       O  0.59981609  0.99275582  0.03064469    -0.82400
H2824       H  0.93303345  0.94593995  0.83711088    -0.06200
O2825       O  0.95409633  0.51712030  0.01967728    -0.87700
H2826       H  0.94157106  0.52612015  0.94194998    -0.06000
H2827       H  0.50923786  0.56450191  0.85693126    -0.06200
C2828       C  0.94338389  0.50888435  0.97039114     0.87400
C2829       C  0.94824328  0.95055174  0.79968501     0.88000
C2830       C  0.99528203  0.55143166  0.81881713     0.88000
H2831       H  0.56683768  0.56977009  0.94069941    -0.06100
O2832       O  0.53952099  0.99424150  0.95281108    -0.75200
Mg2833     Mg  0.98689974  0.56857793  0.03206244     1.58000
H2834       H  0.99264708  0.96095058  0.91874659    -0.06200
C2835       C  0.86206090  0.92629836  0.02071305     0.93000
O2836       O  0.89903216  0.52466851  0.74377504    -0.82400
C2837       C  0.91817338  0.55559212  0.73716307     0.93100
O2838       O  0.97802542  0.89912027  0.69706172    -0.82400
Mg2839     Mg  0.57865655  0.52671460  0.02443891     1.58200
O2840       O  0.87598991  0.95535874  0.04068262    -0.80700
O2841       O  0.62303796  0.60766947  0.75602404    -0.82400
C2842       C  0.99448449  0.75254263  0.81486368    -0.02100
C2843       C  0.74458786  0.49830298  0.80946958    -0.02100
C2844       C  0.74645194  0.74921801  0.80982455    -0.02100
C2845       C  0.75771955  0.92946688  0.69626589     0.00200
C2846       C  0.77850703  0.96433704  0.69152882    -0.11700
C2847       C  0.77433367  0.98595357  0.72628213     0.02400
C2848       C  0.74776091  0.97404861  0.76628527     0.00100
C2849       C  0.72359390  0.93906085  0.76350467    -0.11600
C2850       C  0.72922095  0.91710231  0.73166416     0.02300
H2851       H  0.80051659  0.97486363  0.66410786     0.15300
H2852       H  0.70058141  0.92777202  0.78809182     0.15300
C2853       C  0.70678746  0.88189934  0.73956298     0.36900
C2854       C  0.80034117  0.52024123  0.72499816     0.36900
N2855       N  0.68894783  0.85366707  0.74623215    -0.43400
N2856       N  0.82153030  0.54777336  0.72808808    -0.43400
C2857       C  0.76483592  0.83676055  0.91610262     0.00200
C2858       C  0.73409189  0.80621197  0.92042346    -0.11700
C2859       C  0.72709770  0.77838003  0.88688743     0.02400
C2860       C  0.75271447  0.77883629  0.85155830     0.00100
C2861       C  0.78285402  0.81072801  0.84665022    -0.11600
C2862       C  0.78812787  0.83890072  0.87523678     0.02300
H2863       H  0.71500479  0.80421024  0.94925986     0.15300
H2864       H  0.80125284  0.81573650  0.81431630     0.15300
C2865       C  0.81720725  0.87057487  0.85857086     0.36900
C2866       C  0.69197413  0.75168310  0.88625993     0.36900
N2867       N  0.84040764  0.89582808  0.84504061    -0.43400
N2868       N  0.66314697  0.73171260  0.88652598    -0.43400
C2869       C  0.84445910  0.77366834  0.72770190     0.00200
C2870       C  0.81496055  0.76197558  0.69383835    -0.11700
C2871       C  0.78365282  0.75492309  0.71679748     0.02400
C2872       C  0.78045830  0.75879207  0.77680616     0.00100
C2873       C  0.81072706  0.76979644  0.81023260    -0.11600
C2874       C  0.84182567  0.77736485  0.78678009     0.02300
H2875       H  0.81695510  0.76039863  0.64804569     0.15300
H2876       H  0.80992407  0.77226316  0.85603154     0.15300
C2877       C  0.87160246  0.79170185  0.82389145     0.36900
C2878       C  0.75653701  0.74433917  0.67530291     0.36900
N2879       N  0.89581858  0.80448303  0.85279625    -0.43400
N2880       N  0.73549175  0.73594056  0.64036552    -0.43400
C2881       C  0.94287443  0.78737700  0.93239019     0.00200
C2882       C  0.92281324  0.75976502  0.89723658    -0.11700
C2883       C  0.93736888  0.74938210  0.85603172     0.02400
C2884       C  0.97358907  0.76181716  0.85670472     0.00100
C2885       C  0.99306338  0.78898496  0.89291230    -0.11600
C2886       C  0.97895488  0.80332252  0.92561967     0.02300
H2887       H  0.89531413  0.74853072  0.89703620     0.15300
H2888       H  0.52056793  0.80112870  0.89263853     0.15300
C2889       C  0.00328010  0.83650991  0.94388155     0.36900
C2890       C  0.91425250  0.73048363  0.80975761     0.36900
N2891       N  0.02330219  0.86395825  0.95357283    -0.43400
N2892       N  0.89510270  0.71580256  0.77303151    -0.43400
C2893       C  0.51990041  0.78685487  0.78414430     0.00200
C2894       C  0.50520799  0.80292679  0.75602239    -0.11700
C2895       C  0.52507966  0.83586491  0.73784475     0.02400
C2896       C  0.56106374  0.85107840  0.73004138     0.00100
C2897       C  0.57623470  0.83567657  0.75823823    -0.11600
C2898       C  0.55658071  0.80747694  0.79271616     0.02300
H2899       H  0.97761610  0.79121149  0.75575050     0.15300
H2900       H  0.60390195  0.84885629  0.76135509     0.15300
C2901       C  0.57449312  0.80624597  0.84343763     0.36900
C2902       C  0.50915530  0.85431056  0.74878596     0.36900
N2903       N  0.58919743  0.80628203  0.88431513    -0.43400
N2904       N  0.99610383  0.86763626  0.76578874    -0.43400
C2905       C  0.71206181  0.97564576  0.84780770     0.00200
C2906       C  0.68071605  0.97409576  0.83928058    -0.11700
C2907       C  0.65124873  0.95189001  0.86963763     0.02400
C2908       C  0.65287137  0.93392582  0.91759637     0.00100
C2909       C  0.68342113  0.93433939  0.92621202    -0.11600
C2910       C  0.71179867  0.95319209  0.89033222     0.02300
H2911       H  0.67806356  0.98974066  0.80869461     0.15300
H2912       H  0.68534345  0.92017086  0.96131956     0.15300
C2913       C  0.73930910  0.94693752  0.89525233     0.36900
C2914       C  0.61942708  0.94908465  0.85200108     0.36900
N2915       N  0.76091952  0.94121939  0.89689506    -0.43400
N2916       N  0.59396645  0.94710860  0.83895932    -0.43400
C2917       C  0.74218750  0.52586458  0.77096538     0.00200
C2918       C  0.71585515  0.51565026  0.72832619    -0.11700
C2919       C  0.70913664  0.53860668  0.70037580     0.02400
C2920       C  0.72971042  0.57276847  0.71056746     0.00100
C2921       C  0.75845247  0.58376628  0.74485610    -0.11600
C2922       C  0.76576244  0.56164507  0.77288019     0.02300
H2923       H  0.69904933  0.48950727  0.71944748     0.15300
H2924       H  0.77488417  0.61027189  0.75152681     0.15300
C2925       C  0.79900511  0.57900734  0.79991219     0.36900
C2926       C  0.68058373  0.52837053  0.99503615     0.36900
N2927       N  0.82606565  0.59512761  0.81973262    -0.43400
N2928       N  0.66007570  0.52576564  0.96228442    -0.43400
C2929       C  0.73587256  0.71569909  0.84668525     0.00200
C2930       C  0.70195160  0.69383093  0.86502823    -0.11700
C2931       C  0.69276416  0.66607975  0.90092929     0.02400
C2932       C  0.71803018  0.66203309  0.92943180     0.00100
C2933       C  0.75100028  0.68120501  0.90776539    -0.11600
C2934       C  0.75802123  0.70324042  0.86121301     0.02300
H2935       H  0.68145564  0.69601032  0.84714497     0.15300
H2936       H  0.77030279  0.67590392  0.92189193     0.15300
C2937       C  0.77952020  0.70101800  0.81979125     0.36900
C2938       C  0.65759202  0.63924562  0.89924328     0.36900
N2939       N  0.79611999  0.69785577  0.78713978    -0.43400
N2940       N  0.62963753  0.61725508  0.89631947    -0.43400
C2941       C  0.65826064  0.73401929  0.70229976     0.00200
C2942       C  0.68312627  0.76585659  0.71865764    -0.11700
C2943       C  0.71359697  0.77196715  0.74589637     0.02400
C2944       C  0.71744108  0.74502670  0.76623325     0.00100
C2945       C  0.69374772  0.71369469  0.74283535    -0.11600
C2946       C  0.66589565  0.70885600  0.70881577     0.02300
H2947       H  0.67882403  0.78597910  0.71010998     0.15300
H2948       H  0.69753432  0.69314674  0.74945797     0.15300
C2949       C  0.64376050  0.67747357  0.68158479     0.36900
C2950       C  0.74025254  0.80633645  0.74825362     0.36900
N2951       N  0.62422282  0.65319881  0.65859018    -0.43400
N2952       N  0.76062695  0.83433173  0.74820361    -0.43400
C2953       C  0.51589037  0.73960963  0.84678915     0.00200
C2954       C  0.50631479  0.72596723  0.90143866    -0.11700
C2955       C  0.52492239  0.71540310  0.93342321     0.02400
C2956       C  0.55630875  0.72088251  0.91341304     0.00100
C2957       C  0.56408542  0.73028003  0.85634262    -0.11600
C2958       C  0.54285876  0.73720612  0.82176945     0.02300
H2959       H  0.98312791  0.72226958  0.91861417     0.15300
H2960       H  0.58626133  0.73148805  0.83838869     0.15300
C2961       C  0.55287789  0.74592717  0.76324472     0.36900
C2962       C  0.51015870  0.69694141  0.98532869     0.36900
N2963       N  0.56313170  0.75452868  0.71768452    -0.43400
N2964       N  0.49951160  0.68129897  0.69315744    -0.43400
C2965       C  0.96827016  0.72166982  0.77734922     0.00200
C2966       C  0.94623826  0.69194445  0.80702159    -0.11700
C2967       C  0.92359397  0.66211686  0.77982886     0.02400
C2968       C  0.92108391  0.65991783  0.71953522     0.00100
C2969       C  0.94036389  0.68979351  0.68878775    -0.11600
C2970       C  0.96456640  0.72001976  0.71694856     0.02300
H2971       H  0.94628935  0.69168728  0.85299611     0.15300
H2972       H  0.93946588  0.68861471  0.64268286     0.15300
C2973       C  0.48928318  0.74714804  0.68352019     0.36900
C2974       C  0.90610264  0.63323496  0.81602285     0.36900
N2975       N  0.51161055  0.76925461  0.66013004    -0.43400
N2976       N  0.89366261  0.61027535  0.84559697    -0.43400
C2977       C  0.77562355  0.51673524  0.85446507     0.00200
C2978       C  0.80485855  0.51397817  0.85359724    -0.11700
C2979       C  0.83429075  0.53388241  0.88787804     0.02400
C2980       C  0.83532592  0.55657618  0.92819093     0.00100
C2981       C  0.80528205  0.55737400  0.93325526    -0.11600
C2982       C  0.77592031  0.53778669  0.89818009     0.02300
H2983       H  0.80545338  0.49648221  0.82544601     0.15300
H2984       H  0.80480130  0.57385817  0.63094120     0.15300
C2985       C  0.74868029  0.54431949  0.90121592     0.36900
C2986       C  0.86368017  0.53105679  0.87896908     0.36900
N2987       N  0.72767358  0.05084528  0.90024224    -0.43400
N2988       N  0.88716537  0.52865501  0.87215603    -0.43400
loop_ 
_geom_bond_atom_site_label_1 
_geom_bond_atom_site_label_2 
_geom_bond_distance 
_geom_bond_site_symmetry_2 
_ccdc_geom_bond_type 
C1            C2   1.402       .  A
C1            C6   1.435   1_554  A
C1          C229   1.520       .  S
C2          C501   1.388       .  A
C2            H7   1.085       .  S
C3            C4   1.400       .  A
C3          C251   1.388       .  A
C3          C347   1.476       .  S
C4            C5   1.413       .  A
C4            H8   1.083       .  S
C5          C255   1.441       .  A
C5          C241   1.532       .  S
C6          C503   1.441       .  A
C6          H507   1.082       .  S
H9          C255   1.082       .  S
C10          C11   1.398       .  A
C10         C513   1.427   1_554  A
C10         C202   1.499       .  S
C11          C12   1.384       .  A
C11          H16   1.086       .  S
C12         C511   1.386   1_554  A
C12         C558   1.442       .  S
C13          C14   1.392       .  A
C13         C261   1.386       .  A
C13          H17   1.086       .  S
C14          C15   1.428       .  A
C14         C217   1.496       .  S
C15         C259   1.427       .  A
C15          H18   1.082       .  S
C19          C24   1.414       .  A
C19         C269   1.432       .  A
C19         C193   1.538       .  S
C20          C21   1.427   1_556  A
C20         C517   1.432       .  A
C20          H25   1.082       .  S
C21          C22   1.397       .  A
C21         C181   1.501       .  S
C22         C521   1.389       .  A
C22          H26   1.086       .  S
C23          C24   1.404       .  A
C23         C271   1.389       .  A
C23         C313   1.487       .  S
C24          H27   1.059       .  S
C28          C33   1.394       .  A
C28         C278   1.437       .  A
C28         C169   1.523       .  S
C29          C30   1.445   1_556  A
C29         C526   1.437       .  A
C29          H34   1.082       .  S
C30          C31   1.403       .  A
C30         C157   1.525       .  S
C31          C32   1.388       .  A
C31          H35   1.075       .  S
C32         C531   1.373   1_554  A
C32         C569   1.460       .  S
C33         C281   1.373       .  A
C33          H36   1.064       .  S
C37          C38   1.389       .  A
C37          C42   1.431   1_554  A
C37         C130   1.500       .  S
C38          C39   1.379       .  A
C38          H43   1.085       .  S
C39         C538   1.396   1_554  A
C39          C72   1.464       .  S
C40          C41   1.412       .  A
C40         C288   1.396       .  A
C40          H44   1.073       .  S
C41         C291   1.440       .  A
C41         C142   1.537       .  S
C42         C539   1.440       .  A
C42         H543   1.082       .  S
H45         C291   1.082       .  S
C46          C47   1.445       .  A
C46          C51   1.402       .  A
C46         C118   1.525       .  S
C47         C297   1.445       .  A
C47         H301   1.082       .  S
C48          C49   1.396       .  A
C48         C545   1.445   1_554  A
C48         C106   1.526       .  S
C49         C548   1.388       .  A
C49          H53   1.084       .  S
C50          C51   1.385       .  A
C50         C298   1.388       .  A
C50          C96   1.465       .  S
C51          H54   1.084       .  S
H52         C545   1.082       .  S
O55          C90   1.236       .  S
O55        Mg804   2.111       .  S
O55        Mg561   2.174       .  S
C56          H95   1.081       .  S
C56          O69   1.264       .  A
C56        O1587   1.273       .  A
Mg57        O802   2.111       .  S
Mg57        O584   2.146   1_565  S
Mg57         O97   2.265   1_565  S
Mg57         O68   2.325   1_565  S
Mg57       O1346   2.243       .  S
O58         C826   1.234       .  S
O58       Mg1345   2.137       .  S
O58       Mg1577   2.129       .  S
O59          C90   1.273       .  A
O59         Mg83   2.326       .  S
C60         C261   1.442       .  S
C60          O62   1.261       .  A
C60          O74   1.268       .  A
O61         C836   1.261       .  A
O61         Mg63   2.276       .  S
O62       Mg1588   2.189   1_455  S
Mg63        O304   2.174       .  S
Mg63         O77   2.220       .  S
Mg63        O314   2.242       .  S
Mg63         O69   2.242       .  S
C64         C521   1.487       .  S
C64         O102   1.271       .  A
C64          O70   1.268       .  A
O65          C72   1.259       .  A
O65        Mg561   2.242       .  S
H66         C826   1.081       .  S
C67          H92   1.080       .  S
C67          O81   1.236       .  S
C67          O82   1.271       .  A
O68          C91   1.272       .  A
O69        Mg332   2.186       .  S
O70        Mg598   2.275       .  S
C71         C281   1.460       .  S
C71          O84   1.267       .  A
C71          O76   1.262       .  A
C72          O99   1.256       .  A
Mg73         O80   2.157       .  S
Mg73        O579   2.152       .  S
Mg73         O75   2.332       .  S
Mg73        O102   2.324       .  S
Mg73        O572   2.243       .  S
O74        Mg322   2.243       .  S
O75          C79   1.273       .  A
O76       Mg1826   2.235       .  S
O77          C96   1.266       .  A
O78          C98   1.265       .  A
O78        Mg592   2.240       .  S
C79         H813   1.081   1_545  S
C79         O805   1.234   1_545  S
O80        C1585   1.235   1_455  S
O80       Mg2086   2.170   1_455  S
O81        Mg100   2.146       .  S
O81        Mg322   2.152       .  S
O82       Mg1588   2.300   1_455  S
Mg83       O1552   2.129       .  S
Mg83         O99   2.241       .  S
Mg83       O2068   2.235       .  S
Mg83        O567   2.186       .  S
O84        Mg847   2.275       .  S
H85          C90   1.081       .  S
O86          C89   1.231       .  S
O86         Mg94   2.112       .  S
O86        Mg306   2.146   1_545  S
H87          C89   1.081       .  S
H88        C1585   1.080   1_455  S
C89         O808   1.261   1_545  A
C91        H1582   1.080       .  S
C91        O1574   1.235       .  S
O93        C1550   1.273       .  A
O93        Mg847   2.337       .  S
Mg94       O1823   2.170       .  S
Mg94       O1556   2.189       .  S
Mg94        O327   2.240       .  S
Mg94       O1576   2.300       .  S
C96         O101   1.269       .  A
O97          C98   1.264       .  A
C98         C501   1.476       .  S
Mg100      O1054   2.137   1_545  S
Mg100       O319   2.275       .  S
Mg100       O831   2.275   1_545  S
Mg100       O840   2.337   1_545  S
O101      Mg1053   2.243       .  S
C103        C145   1.605       .  S
C103        C226   1.585       .  S
C103       C1648   1.595       .  S
C103       C1708   1.575       .  S
C104        C178   1.624   1_565  S
C104        C238   1.600   1_565  S
C104        C856   1.608       .  S
C104        C913   1.597       .  S
C105        C121   1.618       .  S
C105        C133   1.597       .  S
C105        C190   1.635       .  S
C105        C205   1.588       .  S
C106        C107   1.416       .  A
C106        C111   1.407       .  A
C107        C108   1.410       .  A
C107        H112   1.085   1_554  S
C108        C109   1.416       .  A
C108        C862   1.428       .  S
C109        C110   1.436       .  A
C109        C851   1.608       .  S
C110        C111   1.422       .  A
C110        H113   1.079       .  S
C111        C114   1.443       .  S
C114        N116   1.157       .  T
C115        C855   1.428   1_545  S
C115        N117   1.152       .  T
C118        C119   1.402       .  A
C118        C123   1.416       .  A
C119        C120   1.428       .  A
C119        H124   1.084       .  S
C120        C121   1.446       .  A
C120        C127   1.439       .  S
C121        C122   1.425       .  A
C122        C123   1.404       .  A
C122        H125   1.077       .  S
C123        C126   1.450       .  S
C126        N128   1.158       .  T
C127        N129   1.157       .  T
C130        C131   1.396       .  A
C130        C135   1.414       .  A
C131        C132   1.414       .  A
C131        H136   1.086   1_554  S
C132        C133   1.442       .  A
C132        C139   1.432       .  S
C133        C134   1.421       .  A
C134        C135   1.403       .  A
C134        H137   1.085       .  S
C135        C138   1.442       .  S
C138        N140   1.155       .  T
C139        N141   1.154   1_554  T
C142        C143   1.406       .  A
C142        C147   1.429       .  A
C143        C144   1.418       .  A
C143        H148   1.084       .  S
C144        C145   1.446       .  A
C144        C151   1.444       .  S
C145        C146   1.404       .  A
C146        C147   1.403       .  A
C146       H1643   1.081       .  S
C147        C150   1.438       .  S
H149       C1640   1.081   1_455  S
C150        N152   1.157       .  T
C151        N153   1.158       .  T
C154        C155   1.403       .  A
C154        C159   1.450       .  A
C154       C1597   1.595   1_455  S
C155        C156   1.400       .  A
C155       H1654   1.086   1_455  S
C156        C157   1.432       .  A
C156        C163   1.431       .  S
C157        C158   1.396       .  A
C158        C159   1.412       .  A
C158        H161   1.085       .  S
C159        C162   1.447       .  S
H160       C1649   1.086       .  S
C162        N164   1.158       .  T
C163       N1659   1.154   1_455  T
N165       C1657   1.154       .  T
C166        C167   1.412       .  A
C166        C171   1.441       .  A
C166        C851   1.597       .  S
C167        C168   1.407       .  A
C167        H172   1.073       .  S
C168        C169   1.423       .  A
C168        C175   1.447       .  S
C169        C170   1.403       .  A
C170        C171   1.420       .  A
C170        H173   1.084       .  S
C171        C174   1.442       .  S
C174        N176   1.157       .  T
C175        N177   1.157       .  T
C178        C179   1.428       .  A
C178        C183   1.460       .  A
C179        C180   1.423       .  A
C179        H184   1.084   1_545  S
C180        C181   1.405       .  A
C180        C685   1.438   1_554  S
C181        C182   1.379       .  A
C182        C183   1.406       .  A
C182        H185   1.087       .  S
C183        C186   1.437       .  S
C186        N188   1.155       .  T
C187        C429   1.438       .  S
C187        N189   1.157       .  T
C190        C191   1.420       .  A
C190        C195   1.450       .  A
C191        C192   1.420       .  A
C191        H196   1.074       .  S
C192        C193   1.421       .  A
C192        C199   1.442       .  S
C193        C194   1.401       .  A
C194        C195   1.419       .  A
C194        H197   1.084       .  S
C195        C198   1.445       .  S
C198        N200   1.158       .  T
C199        N201   1.157       .  T
C202        C203   1.387       .  A
C202        C207   1.413       .  A
C203        C204   1.410       .  A
C203        H208   1.085       .  S
C204        C205   1.449       .  A
C204        C211   1.439       .  S
C205        C206   1.413       .  A
C206        C207   1.405       .  A
C206        H209   1.083       .  S
C207        C210   1.439       .  S
C210        N212   1.156   1_554  T
C211        N213   1.157       .  T
C214        C215   1.398       .  A
C214        C219   1.441       .  A
C214       C1597   1.575   1_455  S
C215        C216   1.395       .  A
C215       H1714   1.073   1_455  S
C216        C217   1.415       .  A
C216        C223   1.446       .  S
C217        C218   1.397       .  A
C218        C219   1.415       .  A
C218        H221   1.085       .  S
C219        C222   1.441       .  S
H220       C1709   1.073       .  S
C222        N224   1.157       .  T
C223        N474   1.158   1_455  T
N225        C721   1.158   1_654  T
C226        C227   1.416       .  A
C226        C231   1.420       .  A
C227        C228   1.395       .  A
C227        H232   1.077       .  S
C228        C229   1.416       .  A
C228        C235   1.444       .  S
C229        C230   1.413       .  A
C230        C231   1.433       .  A
C230        H233   1.081   1_554  S
C231       C1728   1.429       .  S
C234       C1725   1.429       .  S
C234        N236   1.156   1_654  T
C235        N237   1.156       .  T
C238        C239   1.416       .  A
C238        C243   1.436       .  A
C239        C240   1.415       .  A
C239        H244   1.079   1_545  S
C240        C241   1.424       .  A
C240        C247   1.445       .  S
C241        C242   1.408       .  A
C242        C243   1.421       .  A
C242        H494   1.084       .  S
C243        C246   1.441       .  S
H245        C740   1.084       .  S
C246        N995   1.156       .  T
C247        N249   1.157       .  T
N248        C993   1.156       .  T
C250        C251   1.402       .  A
C250        C255   1.435       .  A
C250        C478   1.520       .  S
C251        H256   1.085       .  S
C252        C500   1.388       .  A
C252        C253   1.400       .  A
C252        C596   1.476       .  S
C253        C254   1.413       .  A
C253        H257   1.083       .  S
C254        C504   1.441       .  A
C254        C490   1.532       .  S
H258        C504   1.082       .  S
C259        C260   1.398       .  A
C259        C451   1.499       .  S
C260        C261   1.384       .  A
C260        H265   1.086       .  S
C262        C510   1.386       .  A
C262        C263   1.392       .  A
C262        H266   1.086       .  S
C263        C264   1.428       .  A
C263        C466   1.496       .  S
C264        C508   1.427       .  A
C264        H267   1.082       .  S
C268        C518   1.432       .  A
C268        C273   1.414       .  A
C268        C442   1.538       .  S
C269        C270   1.427       .  A
C269        H274   1.082       .  S
C270        C271   1.397       .  A
C270        C430   1.501       .  S
C271        H275   1.086       .  S
C272        C520   1.389       .  A
C272        C273   1.404       .  A
C272        C562   1.487       .  S
C273        H276   1.059       .  S
C277        C527   1.437       .  A
C277        C282   1.394       .  A
C277        C418   1.523       .  S
C278        C279   1.445       .  A
C278        H283   1.082       .  S
C279        C280   1.403       .  A
C279        C406   1.525       .  S
C280        C281   1.388       .  A
C280        H284   1.075       .  S
C282        C530   1.373       .  A
C282        H285   1.064       .  S
C286        C287   1.389       .  A
C286        C291   1.431       .  A
C286        C379   1.500       .  S
C287        C288   1.379       .  A
C287        H292   1.085       .  S
C288        C321   1.464       .  S
C289        C537   1.396       .  A
C289        C290   1.412       .  A
C289        H293   1.073       .  S
C290        C540   1.440       .  A
C290        C391   1.537       .  S
H294        C540   1.082       .  S
C295        C296   1.445       .  A
C295        C300   1.402       .  A
C295        C367   1.525       .  S
C296        C546   1.445       .  A
C296        H550   1.082       .  S
C297        C298   1.396       .  A
C297        C355   1.526       .  S
C298        H302   1.084       .  S
C299        C547   1.388       .  A
C299        C300   1.385       .  A
C299        C345   1.465       .  S
C300        H303   1.084       .  S
O304        C339   1.236       .  S
O304      Mg1053   2.111       .  S
C305        H344   1.081       .  S
C305        O318   1.264       .  A
C305       O1836   1.273       .  A
Mg306      O1051   2.111       .  S
Mg306       O848   2.243       .  S
Mg306       O346   2.265   1_565  S
Mg306       O317   2.325   1_565  S
O307       C1075   1.234       .  S
O307       Mg847   2.137       .  S
O307      Mg1826   2.129       .  S
O308        C339   1.273       .  A
O308       Mg332   2.326       .  S
C309        C510   1.442       .  S
C309        O311   1.261       .  A
C309        O323   1.268       .  A
O310       C1085   1.261       .  A
O310       Mg312   2.276       .  S
O311      Mg1837   2.189   1_455  S
Mg312       O553   2.174       .  S
Mg312       O326   2.220       .  S
Mg312       O563   2.242       .  S
Mg312       O318   2.242       .  S
C313        O351   1.271       .  A
C313        O319   1.268       .  A
O314        C321   1.259       .  A
H315       C1075   1.081       .  S
C316        H341   1.080       .  S
C316        O330   1.236       .  S
C316        O331   1.271       .  A
O317        C340   1.272       .  A
O318       Mg581   2.186       .  S
C320        C530   1.460       .  S
C320        O333   1.267       .  A
C320        O325   1.262       .  A
C321        O348   1.256       .  A
Mg322       O329   2.157       .  S
Mg322       O324   2.332       .  S
Mg322       O351   2.324       .  S
O323       Mg571   2.243       .  S
O324        C328   1.273       .  A
O325      Mg2075   2.235       .  S
O326        C345   1.266       .  A
O327        C347   1.265       .  A
C328       H1062   1.081   1_545  S
C328       O1054   1.234   1_545  S
O329       C1834   1.235   1_455  S
O329      Mg1588   2.170   1_455  S
O330       Mg571   2.152       .  S
O330       Mg349   2.146       .  S
O331      Mg1837   2.300   1_455  S
Mg332      O1801   2.129       .  S
Mg332      O1570   2.235       .  S
Mg332       O348   2.241       .  S
O333      Mg1096   2.275       .  S
H334        C339   1.081       .  S
O335        C338   1.231       .  S
O335       Mg555   2.146   1_545  S
O335       Mg343   2.112       .  S
H336        C338   1.081       .  S
H337       C1834   1.080   1_455  S
C338       O1057   1.261   1_545  A
C340       H1831   1.080       .  S
C340       O1823   1.235       .  S
O342       C1799   1.273       .  A
O342      Mg1096   2.337       .  S
Mg343      O2072   2.170       .  S
Mg343      O1805   2.189       .  S
Mg343       O576   2.240       .  S
Mg343      O1825   2.300       .  S
C345        O350   1.269       .  A
O346        C347   1.264       .  A
Mg349      O1303   2.137   1_545  S
Mg349       O568   2.275       .  S
Mg349      O1080   2.275   1_545  S
Mg349      O1089   2.337   1_545  S
O350      Mg1302   2.243       .  S
C352        C394   1.605       .  S
C352       C1897   1.595       .  S
C352       C1957   1.575       .  S
C352        C475   1.585       .  S
C353       C1105   1.608       .  S
C353       C1162   1.597       .  S
C353        C427   1.624   1_565  S
C353        C487   1.600   1_565  S
C354        C370   1.618       .  S
C354        C382   1.597       .  S
C354        C439   1.635       .  S
C354        C454   1.588       .  S
C355        C356   1.416       .  A
C355        C360   1.407       .  A
C356        C357   1.410       .  A
C356        H361   1.085       .  S
C357        C358   1.416       .  A
C357       C1111   1.428       .  S
C358        C359   1.436       .  A
C358       C1100   1.608       .  S
C359        C360   1.422       .  A
C359        H362   1.079       .  S
C360        C363   1.443       .  S
C363        N365   1.157       .  T
C364       C1104   1.428   1_545  S
C364        N366   1.152       .  T
C367        C368   1.402       .  A
C367        C372   1.416       .  A
C368        C369   1.428       .  A
C368        H373   1.084       .  S
C369        C370   1.446       .  A
C369        C376   1.439       .  S
C370        C371   1.425       .  A
C371        C372   1.404       .  A
C371        H374   1.077       .  S
C372        C375   1.450       .  S
C375        N377   1.158       .  T
C376        N378   1.157       .  T
C379        C380   1.396       .  A
C379        C384   1.414       .  A
C380        C381   1.414       .  A
C380        H385   1.086       .  S
C381        C382   1.442       .  A
C381        C388   1.432       .  S
C382        C383   1.421       .  A
C383        C384   1.403       .  A
C383        H386   1.085       .  S
C384        C387   1.442       .  S
C387        N389   1.155       .  T
C388        N390   1.154       .  T
C391        C392   1.406       .  A
C391        C396   1.429       .  A
C392        C393   1.418       .  A
C392        H397   1.084       .  S
C393        C394   1.446       .  A
C393        C400   1.444       .  S
C394        C395   1.404       .  A
C395        C396   1.403       .  A
C395       H1892   1.081       .  S
C396        C399   1.438       .  S
H398       C1889   1.081   1_455  S
C399        N401   1.157       .  T
C400        N402   1.158       .  T
C403        C404   1.403       .  A
C403        C408   1.450       .  A
C403       C1846   1.595   1_455  S
C404        C405   1.400       .  A
C404       H1903   1.086   1_455  S
C405        C406   1.432       .  A
C405        C412   1.431       .  S
C406        C407   1.396       .  A
C407        C408   1.412       .  A
C407        H410   1.085       .  S
C408        C411   1.447       .  S
H409       C1898   1.086       .  S
C411        N413   1.158       .  T
C412       N1908   1.154   1_455  T
N414       C1906   1.154       .  T
C415        C416   1.412       .  A
C415        C420   1.441       .  A
C415       C1100   1.597       .  S
C416        C417   1.407       .  A
C416        H421   1.073       .  S
C417        C418   1.423       .  A
C417        C424   1.447       .  S
C418        C419   1.403       .  A
C419        C420   1.420       .  A
C419        H422   1.084       .  S
C420        C423   1.442       .  S
C423        N425   1.157       .  T
C424        N426   1.157       .  T
C427        C428   1.428       .  A
C427        C432   1.460       .  A
C428        C429   1.423       .  A
C428        H433   1.084   1_545  S
C429        C430   1.405       .  A
C430        C431   1.379       .  A
C431        C432   1.406       .  A
C431        H434   1.087       .  S
C432        C435   1.437       .  S
C435        N437   1.155       .  T
C436        C678   1.438       .  S
C436        N438   1.157       .  T
C439        C440   1.420       .  A
C439        C444   1.450       .  A
C440        C441   1.420       .  A
C440        H445   1.074       .  S
C441        C442   1.421       .  A
C441        C448   1.442       .  S
C442        C443   1.401       .  A
C443        C444   1.419       .  A
C443        H446   1.084       .  S
C444        C447   1.445       .  S
C447        N449   1.158       .  T
C448        N450   1.157       .  T
C451        C452   1.387       .  A
C451        C456   1.413       .  A
C452        C453   1.410       .  A
C452        H457   1.085       .  S
C453        C454   1.449       .  A
C453        C460   1.439       .  S
C454        C455   1.413       .  A
C455        C456   1.405       .  A
C455        H458   1.083       .  S
C456        C459   1.439       .  S
C459        N461   1.156       .  T
C460        N462   1.157       .  T
C463        C464   1.398       .  A
C463        C468   1.441       .  A
C463       C1846   1.575   1_455  S
C464        C465   1.395       .  A
C464       H1963   1.073   1_455  S
C465        C466   1.415       .  A
C465        C472   1.446       .  S
C466        C467   1.397       .  A
C467        C468   1.415       .  A
C467        H470   1.085       .  S
C468        C471   1.441       .  S
H469       C1958   1.073       .  S
C471        N473   1.157       .  T
C472        N723   1.158   1_455  T
C475        C476   1.416       .  A
C475        C480   1.420       .  A
C476        C477   1.395       .  A
C476        H481   1.077       .  S
C477        C478   1.416       .  A
C477        C484   1.444       .  S
C478        C479   1.413       .  A
C479        C480   1.433       .  A
C479        H482   1.081       .  S
C480       C1977   1.429       .  S
C483       C1974   1.429       .  S
C483        N485   1.156   1_655  T
C484        N486   1.156       .  T
C487        C488   1.416       .  A
C487        C492   1.436       .  A
C488        C489   1.415       .  A
C488        H493   1.079   1_545  S
C489        C490   1.424       .  A
C489        C496   1.445       .  S
C490        C491   1.408       .  A
C491        C492   1.421       .  A
C491        H743   1.084       .  S
C492        C495   1.441       .  S
C495       N1244   1.156       .  T
C496        N498   1.157       .  T
N497       C1242   1.156       .  T
C499        C500   1.402       .  A
C499        C504   1.435       .  A
C499        C727   1.520       .  S
C500        H505   1.085       .  S
C501        C502   1.400   1_554  A
C502        C503   1.413       .  A
C502        H506   1.083       .  S
C503        C739   1.532       .  S
C508        C509   1.398       .  A
C508        C700   1.499       .  S
C509        C510   1.384       .  A
C509        H514   1.086       .  S
C511        C512   1.392       .  A
C511        H515   1.086       .  S
C512        C513   1.428       .  A
C512        C715   1.496       .  S
C513        H516   1.082       .  S
C517        C522   1.414   1_556  A
C517        C691   1.538       .  S
C518        C519   1.427       .  A
C518        H523   1.082       .  S
C519        C520   1.397       .  A
C519        C679   1.501       .  S
C520        H524   1.086       .  S
C521        C522   1.404       .  A
C522        H525   1.059       .  S
C526        C531   1.394       .  A
C526        C667   1.523       .  S
C527        C528   1.445       .  A
C527        H532   1.082       .  S
C528        C529   1.403       .  A
C528        C655   1.525       .  S
C529        C530   1.388       .  A
C529        H533   1.075       .  S
C531        H534   1.064       .  S
C535        C536   1.389       .  A
C535        C540   1.431       .  A
C535        C628   1.500       .  S
C536        C537   1.379       .  A
C536        H541   1.085       .  S
C537        C570   1.464       .  S
C538        C539   1.412       .  A
C538        H542   1.073       .  S
C539        C640   1.537       .  S
C544        C545   1.445       .  A
C544        C549   1.402       .  A
C544        C616   1.525       .  S
C546        C547   1.396       .  A
C546        C604   1.526       .  S
C547        H551   1.084       .  S
C548        C549   1.385   1_554  A
C548        C594   1.465       .  S
C549        H552   1.084       .  S
O553        C588   1.236       .  S
O553      Mg1302   2.111       .  S
C554        H593   1.081       .  S
C554        O567   1.264   1_556  A
C554       O2085   1.273       .  A
Mg555      O1300   2.111       .  S
Mg555      O1097   2.243       .  S
Mg555       O595   2.265   1_565  S
Mg555       O566   2.325   1_565  S
O556       C1324   1.234       .  S
O556      Mg1096   2.137       .  S
O556      Mg2075   2.129       .  S
O557        C588   1.273       .  A
O557       Mg581   2.326       .  S
C558        O560   1.261       .  A
C558        O572   1.268       .  A
O559       C1334   1.261       .  A
O559       Mg561   2.276   1_556  S
O560      Mg2086   2.189   1_455  S
Mg561       O575   2.220       .  S
Mg561       O567   2.242       .  S
C562        O600   1.271       .  A
C562        O568   1.268       .  A
O563        C570   1.259       .  A
H564       C1324   1.081       .  S
C565        H590   1.080       .  S
C565        O579   1.236   1_556  S
C565        O580   1.271       .  A
O566        C589   1.272       .  A
C569        O582   1.267       .  A
C569        O574   1.262       .  A
C570        O597   1.256       .  A
Mg571       O578   2.157       .  S
Mg571       O573   2.332       .  S
Mg571       O600   2.324       .  S
O573        C577   1.273       .  A
O574      Mg1577   2.235       .  S
O575        C594   1.266       .  A
O576        C596   1.265       .  A
C577       H1311   1.081   1_545  S
C577       O1303   1.234   1_545  S
O578       C2083   1.235   1_455  S
O578      Mg1837   2.170   1_455  S
O579       Mg598   2.146       .  S
O580      Mg2086   2.300   1_456  S
Mg581      O2050   2.129       .  S
Mg581      O1819   2.235       .  S
Mg581       O597   2.241       .  S
O582      Mg1345   2.275       .  S
H583        C588   1.081       .  S
O584        C587   1.231   1_554  S
O584       Mg592   2.112       .  S
H585        C587   1.081       .  S
H586       C2083   1.080   1_455  S
C587       O1306   1.261   1_545  A
C589       H2080   1.080       .  S
C589       O2072   1.235       .  S
O591       C2048   1.273       .  A
O591      Mg1345   2.337   1_556  S
Mg592      O1574   2.170       .  S
Mg592      O2054   2.189       .  S
Mg592      O2074   2.300   1_554  S
C594        O599   1.269       .  A
O595        C596   1.264       .  A
Mg598       O805   2.137   1_545  S
Mg598      O1329   2.275   1_545  S
Mg598      O1338   2.337   1_544  S
O599       Mg804   2.243       .  S
C601        C643   1.605       .  S
C601       C2146   1.595       .  S
C601       C2206   1.575       .  S
C601        C724   1.585       .  S
C602       C1354   1.608       .  S
C602       C1411   1.597       .  S
C602        C676   1.624   1_565  S
C602        C736   1.600   1_565  S
C603        C619   1.618       .  S
C603        C631   1.597       .  S
C603        C688   1.635       .  S
C603        C703   1.588       .  S
C604        C605   1.416       .  A
C604        C609   1.407       .  A
C605        C606   1.410       .  A
C605        H610   1.085       .  S
C606        C607   1.416       .  A
C606       C1360   1.428       .  S
C607        C608   1.436       .  A
C607       C1349   1.608       .  S
C608        C609   1.422       .  A
C608        H611   1.079       .  S
C609        C612   1.443       .  S
C612        N614   1.157       .  T
C613       C1353   1.428   1_545  S
C613        N615   1.152       .  T
C616        C617   1.402       .  A
C616        C621   1.416       .  A
C617        C618   1.428       .  A
C617        H622   1.084       .  S
C618        C619   1.446       .  A
C618        C625   1.439       .  S
C619        C620   1.425       .  A
C620        C621   1.404       .  A
C620        H623   1.077       .  S
C621        C624   1.450       .  S
C624        N626   1.158       .  T
C625        N627   1.157       .  T
C628        C629   1.396       .  A
C628        C633   1.414       .  A
C629        C630   1.414       .  A
C629        H634   1.086       .  S
C630        C631   1.442       .  A
C630        C637   1.432       .  S
C631        C632   1.421       .  A
C632        C633   1.403       .  A
C632        H635   1.085       .  S
C633        C636   1.442       .  S
C636        N638   1.155       .  T
C637        N639   1.154       .  T
C640        C641   1.406       .  A
C640        C645   1.429       .  A
C641        C642   1.418       .  A
C641        H646   1.084       .  S
C642        C643   1.446       .  A
C642        C649   1.444       .  S
C643        C644   1.404       .  A
C644        C645   1.403       .  A
C644       H2141   1.081       .  S
C645        C648   1.438       .  S
H647       C2138   1.081   1_455  S
C648        N650   1.157       .  T
C649        N651   1.158       .  T
C652        C653   1.403       .  A
C652        C657   1.450       .  A
C652       C2095   1.595   1_455  S
C653        C654   1.400       .  A
C653       H2152   1.086   1_455  S
C654        C655   1.432       .  A
C654        C661   1.431       .  S
C655        C656   1.396       .  A
C656        C657   1.412       .  A
C656        H659   1.085       .  S
C657        C660   1.447       .  S
H658       C2147   1.086       .  S
C660        N662   1.158       .  T
C661       N2157   1.154   1_455  T
N663       C2155   1.154       .  T
C664        C665   1.412       .  A
C664        C669   1.441       .  A
C664       C1349   1.597       .  S
C665        C666   1.407       .  A
C665        H670   1.073       .  S
C666        C667   1.423       .  A
C666        C673   1.447       .  S
C667        C668   1.403       .  A
C668        C669   1.420       .  A
C668        H671   1.084       .  S
C669        C672   1.442       .  S
C672        N674   1.157       .  T
C673        N675   1.157       .  T
C676        C677   1.428       .  A
C676        C681   1.460       .  A
C677        C678   1.423       .  A
C677        H682   1.084   1_545  S
C678        C679   1.405       .  A
C679        C680   1.379       .  A
C680        C681   1.406       .  A
C680        H683   1.087       .  S
C681        C684   1.437       .  S
C684        N686   1.155       .  T
C685        N687   1.157       .  T
C688        C689   1.420       .  A
C688        C693   1.450       .  A
C689        C690   1.420       .  A
C689        H694   1.074       .  S
C690        C691   1.421       .  A
C690        C697   1.442       .  S
C691        C692   1.401       .  A
C692        C693   1.419       .  A
C692        H695   1.084       .  S
C693        C696   1.445       .  S
C696        N698   1.158       .  T
C697        N699   1.157       .  T
C700        C701   1.387       .  A
C700        C705   1.413       .  A
C701        C702   1.410       .  A
C701        H706   1.085       .  S
C702        C703   1.449       .  A
C702        C709   1.439       .  S
C703        C704   1.413       .  A
C704        C705   1.405       .  A
C704        H707   1.083       .  S
C705        C708   1.439       .  S
C708        N710   1.156       .  T
C709        N711   1.157       .  T
C712        C713   1.398       .  A
C712        C717   1.441       .  A
C712       C2095   1.575   1_455  S
C713        C714   1.395       .  A
C713       H2212   1.073   1_455  S
C714        C715   1.415       .  A
C714        C721   1.446       .  S
C715        C716   1.397       .  A
C716        C717   1.415       .  A
C716        H719   1.085       .  S
C717        C720   1.441       .  S
H718       C2207   1.073       .  S
C720        N722   1.157       .  T
C724        C725   1.416       .  A
C724        C729   1.420       .  A
C725        C726   1.395       .  A
C725        H730   1.077       .  S
C726        C727   1.416       .  A
C726        C733   1.444       .  S
C727        C728   1.413       .  A
C728        C729   1.433       .  A
C728        H731   1.081       .  S
C729       C2226   1.429       .  S
C732       C2223   1.429       .  S
C732        N734   1.156   1_655  T
C733        N735   1.156       .  T
C736        C737   1.416       .  A
C736        C741   1.436       .  A
C737        C738   1.415       .  A
C737        H742   1.079   1_545  S
C738        C739   1.424       .  A
C738        C745   1.445       .  S
C739        C740   1.408       .  A
C740        C741   1.421       .  A
C741        C744   1.441       .  S
C744       N1493   1.156       .  T
C745        N747   1.157       .  T
N746       C1491   1.156       .  T
C748        C749   1.402       .  A
C748        C753   1.435   1_554  A
C748        C976   1.520       .  S
C749       C1248   1.388       .  A
C749        H754   1.085       .  S
C750        C998   1.388       .  A
C750        C751   1.400       .  A
C750       C1094   1.476       .  S
C751        C752   1.413       .  A
C751        H755   1.083       .  S
C752       C1002   1.441       .  A
C752        C988   1.532       .  S
C753       C1250   1.441       .  A
C753       H1254   1.082       .  S
H756       C1002   1.082       .  S
C757        C758   1.398       .  A
C757       C1260   1.427   1_554  A
C757        C949   1.499       .  S
C758        C759   1.384       .  A
C758        H763   1.086       .  S
C759       C1258   1.386   1_554  A
C759       C1305   1.442       .  S
C760       C1008   1.386       .  A
C760        C761   1.392       .  A
C760        H764   1.086       .  S
C761        C762   1.428       .  A
C761        C964   1.496       .  S
C762       C1006   1.427       .  A
C762        H765   1.082       .  S
C766       C1016   1.432       .  A
C766        C771   1.414       .  A
C766        C940   1.538       .  S
C767       C1264   1.432       .  A
C767        C768   1.427   1_556  A
C767        H772   1.082       .  S
C768        C769   1.397       .  A
C768        C928   1.501       .  S
C769       C1268   1.389       .  A
C769        H773   1.086       .  S
C770       C1018   1.389       .  A
C770        C771   1.404       .  A
C770       C1060   1.487       .  S
C771        H774   1.059       .  S
C775       C1025   1.437       .  A
C775        C780   1.394       .  A
C775        C916   1.523       .  S
C776       C1273   1.437       .  A
C776        C777   1.445   1_556  A
C776        H781   1.082       .  S
C777        C778   1.403       .  A
C777        C904   1.525       .  S
C778        C779   1.388       .  A
C778        H782   1.075       .  S
C779       C1278   1.373   1_554  A
C779       C1316   1.460       .  S
C780       C1028   1.373       .  A
C780        H783   1.064       .  S
C784        C785   1.389       .  A
C784        C789   1.431   1_554  A
C784        C877   1.500       .  S
C785        C786   1.378       .  A
C785        H790   1.085       .  S
C786       C1285   1.396   1_554  A
C786        C819   1.464       .  S
C787       C1035   1.396       .  A
C787        C788   1.412       .  A
C787        H791   1.073       .  S
C788       C1038   1.440       .  A
C788        C889   1.537       .  S
C789       C1286   1.440       .  A
C789       H1290   1.082       .  S
H792       C1038   1.082       .  S
C793        C794   1.445       .  A
C793        C798   1.402       .  A
C793        C865   1.525       .  S
C794       C1044   1.445       .  A
C794       H1048   1.082       .  S
C795       C1292   1.445   1_554  A
C795        C796   1.396       .  A
C795        C853   1.526       .  S
C796       C1295   1.388       .  A
C796        H800   1.084       .  S
C797       C1045   1.388       .  A
C797        C798   1.385       .  A
C797        C843   1.465       .  S
C798        H801   1.084       .  S
H799       C1292   1.082       .  S
O802        C837   1.236       .  S
O802      Mg1308   2.174       .  S
C803        H842   1.081       .  S
C803        O816   1.264       .  A
C803       O2334   1.273       .  A
Mg804      O1331   2.146       .  S
Mg804       O844   2.265       .  S
Mg804       O815   2.325       .  S
O805      Mg2324   2.129       .  S
O806        C837   1.273       .  A
O806       Mg830   2.326       .  S
C807       C1008   1.442       .  S
C807        O809   1.261       .  A
C807        O821   1.268       .  A
O808       Mg810   2.276       .  S
O809      Mg2335   2.189   1_455  S
Mg810      O1051   2.174       .  S
Mg810       O824   2.220       .  S
Mg810      O1061   2.242       .  S
Mg810       O816   2.242       .  S
C811       C1268   1.487       .  S
C811        O849   1.271       .  A
C811        O817   1.268       .  A
O812        C819   1.259       .  A
O812      Mg1308   2.242       .  S
C814        H839   1.080       .  S
C814        O828   1.236       .  S
C814        O829   1.271       .  A
O815        C838   1.272       .  A
O816      Mg1079   2.186       .  S
O817      Mg1345   2.275       .  S
C818       C1028   1.460       .  S
C818        O831   1.267       .  A
C818        O823   1.262       .  A
C819        O846   1.256       .  A
Mg820       O827   2.157       .  S
Mg820      O1326   2.152       .  S
Mg820      O1319   2.243       .  S
Mg820       O822   2.332       .  S
Mg820       O849   2.324       .  S
O821      Mg1069   2.243       .  S
O822        C826   1.273       .  A
O823      Mg2573   2.235       .  S
O824        C843   1.266       .  A
O825        C845   1.265       .  A
O825      Mg1339   2.240       .  S
O827       C2332   1.235   1_455  S
O827      Mg2833   2.170   1_455  S
O828      Mg1069   2.152       .  S
O828       Mg847   2.146       .  S
O829      Mg2335   2.300   1_455  S
Mg830      O2299   2.129       .  S
Mg830      O2815   2.235       .  S
Mg830       O846   2.241       .  S
Mg830      O1314   2.186       .  S
H832        C837   1.081       .  S
O833        C836   1.231       .  S
O833      Mg1053   2.146       .  S
O833       Mg841   2.112       .  S
H834        C836   1.081       .  S
H835       C2332   1.080   1_455  S
C838       H2329   1.080       .  S
C838       O2321   1.235       .  S
O840       C2297   1.273       .  A
Mg841      O2570   2.170       .  S
Mg841      O2303   2.189       .  S
Mg841      O1074   2.240       .  S
Mg841      O2323   2.300       .  S
C843        O848   1.269       .  A
O844        C845   1.264       .  A
C845       C1248   1.476       .  S
Mg847      O1066   2.275       .  S
C850        C892   1.605       .  S
C850       C2395   1.595       .  S
C850       C2455   1.575       .  S
C850        C973   1.585       .  S
C851        C925   1.624       .  S
C851        C985   1.600       .  S
C852        C868   1.618       .  S
C852        C880   1.597       .  S
C852        C937   1.635       .  S
C852        C952   1.588       .  S
C853        C854   1.416       .  A
C853        C858   1.407       .  A
C854        C855   1.410       .  A
C854        H859   1.085   1_554  S
C855        C856   1.416       .  A
C856        C857   1.436       .  A
C857        C858   1.422       .  A
C857        H860   1.079       .  S
C858        C861   1.443       .  S
C861        N863   1.157       .  T
C862        N864   1.152       .  T
C865        C866   1.402       .  A
C865        C870   1.416       .  A
C866        C867   1.428       .  A
C866        H871   1.084       .  S
C867        C868   1.446       .  A
C867        C874   1.439       .  S
C868        C869   1.425       .  A
C869        C870   1.404       .  A
C869        H872   1.077       .  S
C870        C873   1.450       .  S
C873        N875   1.158       .  T
C874        N876   1.157       .  T
C877        C878   1.396       .  A
C877        C882   1.414       .  A
C878        C879   1.414       .  A
C878        H883   1.086   1_554  S
C879        C880   1.442       .  A
C879        C886   1.432       .  S
C880        C881   1.421       .  A
C881        C882   1.403       .  A
C881        H884   1.085       .  S
C882        C885   1.442       .  S
C885        N887   1.155       .  T
C886        N888   1.154   1_554  T
C889        C890   1.406       .  A
C889        C894   1.429       .  A
C890        C891   1.418       .  A
C890        H895   1.084       .  S
C891        C892   1.446       .  A
C891        C898   1.444       .  S
C892        C893   1.404       .  A
C893        C894   1.403       .  A
C893       H2390   1.081       .  S
C894        C897   1.438       .  S
H896       C2387   1.081   1_455  S
C897        N899   1.157       .  T
C898        N900   1.158       .  T
C901        C902   1.403       .  A
C901        C906   1.450       .  A
C901       C2344   1.595   1_455  S
C902        C903   1.400       .  A
C902       H2401   1.086   1_455  S
C903        C904   1.432       .  A
C903        C910   1.431       .  S
C904        C905   1.396       .  A
C905        C906   1.412       .  A
C905        H908   1.085       .  S
C906        C909   1.447       .  S
H907       C2396   1.086       .  S
C909        N911   1.158       .  T
C910       N2406   1.154   1_455  T
N912       C2404   1.154       .  T
C913        C914   1.412       .  A
C913        C918   1.441       .  A
C914        C915   1.407       .  A
C914        H919   1.073       .  S
C915        C916   1.423       .  A
C915        C922   1.447       .  S
C916        C917   1.403       .  A
C917        C918   1.420       .  A
C917        H920   1.084       .  S
C918        C921   1.442       .  S
C921        N923   1.157       .  T
C922        N924   1.157       .  T
C925        C926   1.428       .  A
C925        C930   1.460       .  A
C926        C927   1.423       .  A
C926        H931   1.084       .  S
C927        C928   1.405       .  A
C927       C1432   1.438   1_554  S
C928        C929   1.379       .  A
C929        C930   1.406       .  A
C929        H932   1.087       .  S
C930        C933   1.437       .  S
C933        N935   1.155       .  T
C934       C1176   1.438       .  S
C934        N936   1.157       .  T
C937        C938   1.420       .  A
C937        C942   1.450       .  A
C938        C939   1.420       .  A
C938        H943   1.074       .  S
C939        C940   1.421       .  A
C939        C946   1.442       .  S
C940        C941   1.401       .  A
C941        C942   1.419       .  A
C941        H944   1.084       .  S
C942        C945   1.445       .  S
C945        N947   1.158       .  T
C946        N948   1.157       .  T
C949        C950   1.387       .  A
C949        C954   1.413       .  A
C950        C951   1.410       .  A
C950        H955   1.085       .  S
C951        C952   1.449       .  A
C951        C958   1.439       .  S
C952        C953   1.413       .  A
C953        C954   1.405       .  A
C953        H956   1.083       .  S
C954        C957   1.439       .  S
C957        N959   1.156   1_554  T
C958        N960   1.157       .  T
C961        C962   1.398       .  A
C961        C966   1.441       .  A
C961       C2344   1.575   1_455  S
C962        C963   1.395       .  A
C962       H2461   1.073   1_455  S
C963        C964   1.415       .  A
C963        C970   1.446       .  S
C964        C965   1.397       .  A
C965        C966   1.415       .  A
C965        H968   1.085       .  S
C966        C969   1.441       .  S
H967       C2456   1.073       .  S
C969        N971   1.157       .  T
C970       N1221   1.158   1_455  T
N972       C1468   1.158   1_654  T
C973        C974   1.416       .  A
C973        C978   1.420       .  A
C974        C975   1.395       .  A
C974        H979   1.077       .  S
C975        C976   1.416       .  A
C975        C982   1.444       .  S
C976        C977   1.413       .  A
C977        C978   1.433       .  A
C977        H980   1.081   1_554  S
C978       C2475   1.429       .  S
C981       C2472   1.429       .  S
C981        N983   1.156   1_654  T
C982        N984   1.156       .  T
C985        C986   1.416       .  A
C985        C990   1.436       .  A
C986        C987   1.415       .  A
C986        H991   1.079       .  S
C987        C988   1.424       .  A
C987        C994   1.445       .  S
C988        C989   1.408       .  A
C989        C990   1.421       .  A
C989       H1241   1.084       .  S
C990        C993   1.441       .  S
H992       C1487   1.084       .  S
C994        N996   1.157       .  T
C997        C998   1.402       .  A
C997       C1002   1.435       .  A
C997       C1225   1.520       .  S
C998       H1003   1.085       .  S
C999       C1247   1.388       .  A
C999       C1000   1.400       .  A
C999       C1343   1.476       .  S
C1000      C1001   1.413       .  A
C1000      H1004   1.083       .  S
C1001      C1251   1.441       .  A
C1001      C1237   1.532       .  S
H1005      C1251   1.082       .  S
C1006      C1007   1.398       .  A
C1006      C1198   1.499       .  S
C1007      C1008   1.384       .  A
C1007      H1012   1.086       .  S
C1009      C1257   1.386       .  A
C1009      C1010   1.392       .  A
C1009      H1013   1.086       .  S
C1010      C1011   1.428       .  A
C1010      C1213   1.496       .  S
C1011      C1255   1.427       .  A
C1011      H1014   1.082       .  S
C1015      C1265   1.432       .  A
C1015      C1020   1.414       .  A
C1015      C1189   1.538       .  S
C1016      C1017   1.427       .  A
C1016      H1021   1.082       .  S
C1017      C1018   1.397       .  A
C1017      C1177   1.501       .  S
C1018      H1022   1.086       .  S
C1019      C1267   1.389       .  A
C1019      C1020   1.404       .  A
C1019      C1309   1.487       .  S
C1020      H1023   1.059       .  S
C1024      C1274   1.437       .  A
C1024      C1029   1.394       .  A
C1024      C1165   1.523       .  S
C1025      C1026   1.445       .  A
C1025      H1030   1.082       .  S
C1026      C1027   1.403       .  A
C1026      C1153   1.525       .  S
C1027      C1028   1.388       .  A
C1027      H1031   1.075       .  S
C1029      C1277   1.373       .  A
C1029      H1032   1.064       .  S
C1033      C1034   1.389       .  A
C1033      C1038   1.431       .  A
C1033      C1126   1.500       .  S
C1034      C1035   1.378       .  A
C1034      H1039   1.085       .  S
C1035      C1068   1.464       .  S
C1036      C1284   1.396       .  A
C1036      C1037   1.412       .  A
C1036      H1040   1.073       .  S
C1037      C1287   1.440       .  A
C1037      C1138   1.537       .  S
H1041      C1287   1.082       .  S
C1042      C1043   1.445       .  A
C1042      C1047   1.402       .  A
C1042      C1114   1.525       .  S
C1043      C1293   1.445       .  A
C1043      H1297   1.082       .  S
C1044      C1045   1.396       .  A
C1044      C1102   1.526       .  S
C1045      H1049   1.084       .  S
C1046      C1294   1.388       .  A
C1046      C1047   1.385       .  A
C1046      C1092   1.465       .  S
C1047      H1050   1.084       .  S
O1051      C1086   1.236       .  S
C1052      H1091   1.081       .  S
C1052      O1065   1.264       .  A
C1052      O2583   1.273       .  A
Mg1053     O1093   2.265       .  S
Mg1053     O1064   2.325       .  S
O1054     Mg2573   2.129       .  S
O1055      C1086   1.273       .  A
O1055     Mg1079   2.326       .  S
C1056      C1257   1.442       .  S
C1056      O1058   1.261       .  A
C1056      O1070   1.268       .  A
O1057     Mg1059   2.276       .  S
O1058     Mg2584   2.189   1_455  S
Mg1059     O1300   2.174       .  S
Mg1059     O1073   2.220       .  S
Mg1059     O1310   2.242       .  S
Mg1059     O1065   2.242       .  S
C1060      O1098   1.271       .  A
C1060      O1066   1.268       .  A
O1061      C1068   1.259       .  A
C1063      H1088   1.080       .  S
C1063      O1077   1.236       .  S
C1063      O1078   1.271       .  A
O1064      C1087   1.272       .  A
O1065     Mg1328   2.186       .  S
C1067      C1277   1.460       .  S
C1067      O1080   1.267       .  A
C1067      O1072   1.262       .  A
C1068      O1095   1.256       .  A
Mg1069     O1076   2.157       .  S
Mg1069     O1071   2.332       .  S
Mg1069     O1098   2.324       .  S
O1070     Mg1318   2.243       .  S
O1071      C1075   1.273       .  A
O1072     Mg2822   2.235       .  S
O1073      C1092   1.266       .  A
O1074      C1094   1.265       .  A
O1076      C2581   1.235   1_455  S
O1076     Mg2335   2.170   1_455  S
O1077     Mg1318   2.152       .  S
O1077     Mg1096   2.146       .  S
O1078     Mg2584   2.300   1_455  S
Mg1079     O2548   2.129       .  S
Mg1079     O2317   2.235       .  S
Mg1079     O1095   2.241       .  S
H1081      C1086   1.081       .  S
O1082      C1085   1.231       .  S
O1082     Mg1302   2.146       .  S
O1082     Mg1090   2.112       .  S
H1083      C1085   1.081       .  S
H1084      C2581   1.080   1_455  S
C1087      H2578   1.080       .  S
C1087      O2570   1.235       .  S
O1089      C2546   1.273       .  A
Mg1090     O2819   2.170       .  S
Mg1090     O2552   2.189       .  S
Mg1090     O1323   2.240       .  S
Mg1090     O2572   2.300       .  S
C1092      O1097   1.269       .  A
O1093      C1094   1.264       .  A
Mg1096     O1315   2.275       .  S
C1099      C1141   1.605       .  S
C1099      C2644   1.595       .  S
C1099      C2704   1.575       .  S
C1099      C1222   1.585       .  S
C1100      C1174   1.624       .  S
C1100      C1234   1.600       .  S
C1101      C1117   1.618       .  S
C1101      C1129   1.597       .  S
C1101      C1186   1.635       .  S
C1101      C1201   1.588       .  S
C1102      C1103   1.416       .  A
C1102      C1107   1.407       .  A
C1103      C1104   1.410       .  A
C1103      H1108   1.085       .  S
C1104      C1105   1.416       .  A
C1105      C1106   1.436       .  A
C1106      C1107   1.422       .  A
C1106      H1109   1.079       .  S
C1107      C1110   1.443       .  S
C1110      N1112   1.157       .  T
C1111      N1113   1.152       .  T
C1114      C1115   1.402       .  A
C1114      C1119   1.416       .  A
C1115      C1116   1.428       .  A
C1115      H1120   1.084       .  S
C1116      C1117   1.446       .  A
C1116      C1123   1.439       .  S
C1117      C1118   1.425       .  A
C1118      C1119   1.404       .  A
C1118      H1121   1.077       .  S
C1119      C1122   1.450       .  S
C1122      N1124   1.158       .  T
C1123      N1125   1.157       .  T
C1126      C1127   1.396       .  A
C1126      C1131   1.414       .  A
C1127      C1128   1.414       .  A
C1127      H1132   1.086       .  S
C1128      C1129   1.442       .  A
C1128      C1135   1.432       .  S
C1129      C1130   1.421       .  A
C1130      C1131   1.403       .  A
C1130      H1133   1.085       .  S
C1131      C1134   1.442       .  S
C1134      N1136   1.155       .  T
C1135      N1137   1.154       .  T
C1138      C1139   1.406       .  A
C1138      C1143   1.429       .  A
C1139      C1140   1.418       .  A
C1139      H1144   1.084       .  S
C1140      C1141   1.446       .  A
C1140      C1147   1.444       .  S
C1141      C1142   1.404       .  A
C1142      C1143   1.403       .  A
C1142      H2639   1.081       .  S
C1143      C1146   1.438       .  S
H1145      C2636   1.081   1_455  S
C1146      N1148   1.157       .  T
C1147      N1149   1.158       .  T
C1150      C1151   1.403       .  A
C1150      C1155   1.450       .  A
C1150      C2593   1.595   1_455  S
C1151      C1152   1.400       .  A
C1151      H2650   1.086   1_455  S
C1152      C1153   1.432       .  A
C1152      C1159   1.431       .  S
C1153      C1154   1.396       .  A
C1154      C1155   1.412       .  A
C1154      H1157   1.085       .  S
C1155      C1158   1.447       .  S
H1156      C2645   1.086       .  S
C1158      N1160   1.158       .  T
C1159      N2655   1.154   1_455  T
N1161      C2653   1.154       .  T
C1162      C1163   1.412       .  A
C1162      C1167   1.441       .  A
C1163      C1164   1.407       .  A
C1163      H1168   1.073       .  S
C1164      C1165   1.423       .  A
C1164      C1171   1.447       .  S
C1165      C1166   1.403       .  A
C1166      C1167   1.420       .  A
C1166      H1169   1.084       .  S
C1167      C1170   1.442       .  S
C1170      N1172   1.157       .  T
C1171      N1173   1.157       .  T
C1174      C1175   1.428       .  A
C1174      C1179   1.460       .  A
C1175      C1176   1.423       .  A
C1175      H1180   1.084       .  S
C1176      C1177   1.405       .  A
C1177      C1178   1.379       .  A
C1178      C1179   1.406       .  A
C1178      H1181   1.087       .  S
C1179      C1182   1.437       .  S
C1182      N1184   1.155       .  T
C1183      C1425   1.438       .  S
C1183      N1185   1.157       .  T
C1186      C1187   1.420       .  A
C1186      C1191   1.450       .  A
C1187      C1188   1.420       .  A
C1187      H1192   1.074       .  S
C1188      C1189   1.421       .  A
C1188      C1195   1.442       .  S
C1189      C1190   1.401       .  A
C1190      C1191   1.419       .  A
C1190      H1193   1.084       .  S
C1191      C1194   1.445       .  S
C1194      N1196   1.158       .  T
C1195      N1197   1.157       .  T
C1198      C1199   1.387       .  A
C1198      C1203   1.413       .  A
C1199      C1200   1.410       .  A
C1199      H1204   1.085       .  S
C1200      C1201   1.449       .  A
C1200      C1207   1.439       .  S
C1201      C1202   1.413       .  A
C1202      C1203   1.405       .  A
C1202      H1205   1.083       .  S
C1203      C1206   1.439       .  S
C1206      N1208   1.156       .  T
C1207      N1209   1.157       .  T
C1210      C1211   1.398       .  A
C1210      C1215   1.441       .  A
C1210      C2593   1.575   1_455  S
C1211      C1212   1.395       .  A
C1211      H2710   1.073   1_455  S
C1212      C1213   1.415       .  A
C1212      C1219   1.446       .  S
C1213      C1214   1.397       .  A
C1214      C1215   1.415       .  A
C1214      H1217   1.085       .  S
C1215      C1218   1.441       .  S
H1216      C2705   1.073       .  S
C1218      N1220   1.157       .  T
C1219      N1470   1.158   1_455  T
C1222      C1223   1.416       .  A
C1222      C1227   1.420       .  A
C1223      C1224   1.395       .  A
C1223      H1228   1.077       .  S
C1224      C1225   1.416       .  A
C1224      C1231   1.444       .  S
C1225      C1226   1.413       .  A
C1226      C1227   1.433       .  A
C1226      H1229   1.081       .  S
C1227      C2724   1.429       .  S
C1230      C2721   1.429       .  S
C1230      N1232   1.156   1_655  T
C1231      N1233   1.156       .  T
C1234      C1235   1.416       .  A
C1234      C1239   1.436       .  A
C1235      C1236   1.415       .  A
C1235      H1240   1.079       .  S
C1236      C1237   1.424       .  A
C1236      C1243   1.445       .  S
C1237      C1238   1.408       .  A
C1238      C1239   1.421       .  A
C1238      H1490   1.084       .  S
C1239      C1242   1.441       .  S
C1243      N1245   1.157       .  T
C1246      C1247   1.402       .  A
C1246      C1251   1.435       .  A
C1246      C1474   1.520       .  S
C1247      H1252   1.085       .  S
C1248      C1249   1.400   1_554  A
C1249      C1250   1.413       .  A
C1249      H1253   1.083       .  S
C1250      C1486   1.532       .  S
C1255      C1256   1.398       .  A
C1255      C1447   1.499       .  S
C1256      C1257   1.384       .  A
C1256      H1261   1.086       .  S
C1258      C1259   1.392       .  A
C1258      H1262   1.086       .  S
C1259      C1260   1.428       .  A
C1259      C1462   1.496       .  S
C1260      H1263   1.082       .  S
C1264      C1269   1.414   1_556  A
C1264      C1438   1.538       .  S
C1265      C1266   1.427       .  A
C1265      H1270   1.082       .  S
C1266      C1267   1.397       .  A
C1266      C1426   1.501       .  S
C1267      H1271   1.086       .  S
C1268      C1269   1.404       .  A
C1269      H1272   1.059       .  S
C1273      C1278   1.394       .  A
C1273      C1414   1.523       .  S
C1274      C1275   1.445       .  A
C1274      H1279   1.082       .  S
C1275      C1276   1.403       .  A
C1275      C1402   1.525       .  S
C1276      C1277   1.388       .  A
C1276      H1280   1.075       .  S
C1278      H1281   1.064       .  S
C1282      C1283   1.389       .  A
C1282      C1287   1.431       .  A
C1282      C1375   1.500       .  S
C1283      C1284   1.378       .  A
C1283      H1288   1.085       .  S
C1284      C1317   1.464       .  S
C1285      C1286   1.412       .  A
C1285      H1289   1.073       .  S
C1286      C1387   1.537       .  S
C1291      C1292   1.445       .  A
C1291      C1296   1.402       .  A
C1291      C1363   1.525       .  S
C1293      C1294   1.396       .  A
C1293      C1351   1.526       .  S
C1294      H1298   1.084       .  S
C1295      C1296   1.385   1_554  A
C1295      C1341   1.465       .  S
C1296      H1299   1.084       .  S
O1300      C1335   1.236       .  S
C1301      H1340   1.081       .  S
C1301      O1314   1.264   1_556  A
C1301      O2832   1.273       .  A
Mg1302     O1342   2.265       .  S
Mg1302     O1313   2.325       .  S
O1303     Mg2822   2.129       .  S
O1304      C1335   1.273       .  A
O1304     Mg1328   2.326       .  S
C1305      O1307   1.261       .  A
C1305      O1319   1.268       .  A
O1306     Mg1308   2.276   1_556  S
O1307     Mg2833   2.189   1_455  S
Mg1308     O1322   2.220       .  S
Mg1308     O1314   2.242       .  S
C1309      O1347   1.271       .  A
C1309      O1315   1.268       .  A
O1310      C1317   1.259       .  A
C1312      H1337   1.080       .  S
C1312      O1326   1.236   1_556  S
C1312      O1327   1.271       .  A
O1313      C1336   1.272       .  A
C1316      O1329   1.267       .  A
C1316      O1321   1.262       .  A
C1317      O1344   1.256       .  A
Mg1318     O1325   2.157       .  S
Mg1318     O1320   2.332       .  S
Mg1318     O1347   2.324       .  S
O1320      C1324   1.273       .  A
O1321     Mg2324   2.235       .  S
O1322      C1341   1.266       .  A
O1323      C1343   1.265       .  A
O1325      C2830   1.235   1_455  S
O1325     Mg2584   2.170   1_455  S
O1326     Mg1345   2.146       .  S
O1327     Mg2833   2.300   1_456  S
Mg1328     O2797   2.129       .  S
Mg1328     O2566   2.235       .  S
Mg1328     O1344   2.241       .  S
H1330      C1335   1.081       .  S
O1331      C1334   1.231   1_554  S
O1331     Mg1339   2.112       .  S
H1332      C1334   1.081       .  S
H1333      C2830   1.080   1_455  S
C1336      H2827   1.080       .  S
C1336      O2819   1.235       .  S
O1338      C2795   1.273       .  A
Mg1339     O2321   2.170       .  S
Mg1339     O2801   2.189       .  S
Mg1339     O2821   2.300   1_554  S
C1341      O1346   1.269       .  A
O1342      C1343   1.264       .  A
C1348      C1390   1.605       .  S
C1348      C2893   1.595       .  S
C1348      C2953   1.575       .  S
C1348      C1471   1.585       .  S
C1349      C1423   1.624       .  S
C1349      C1483   1.600       .  S
C1350      C1366   1.618       .  S
C1350      C1378   1.597       .  S
C1350      C1435   1.635       .  S
C1350      C1450   1.588       .  S
C1351      C1352   1.416       .  A
C1351      C1356   1.407       .  A
C1352      C1353   1.410       .  A
C1352      H1357   1.085       .  S
C1353      C1354   1.416       .  A
C1354      C1355   1.436       .  A
C1355      C1356   1.422       .  A
C1355      H1358   1.079       .  S
C1356      C1359   1.443       .  S
C1359      N1361   1.157       .  T
C1360      N1362   1.152       .  T
C1363      C1364   1.402       .  A
C1363      C1368   1.416       .  A
C1364      C1365   1.428       .  A
C1364      H1369   1.084       .  S
C1365      C1366   1.446       .  A
C1365      C1372   1.439       .  S
C1366      C1367   1.425       .  A
C1367      C1368   1.404       .  A
C1367      H1370   1.077       .  S
C1368      C1371   1.450       .  S
C1371      N1373   1.158       .  T
C1372      N1374   1.157       .  T
C1375      C1376   1.396       .  A
C1375      C1380   1.414       .  A
C1376      C1377   1.414       .  A
C1376      H1381   1.086       .  S
C1377      C1378   1.442       .  A
C1377      C1384   1.432       .  S
C1378      C1379   1.421       .  A
C1379      C1380   1.403       .  A
C1379      H1382   1.085       .  S
C1380      C1383   1.442       .  S
C1383      N1385   1.155       .  T
C1384      N1386   1.154       .  T
C1387      C1388   1.406       .  A
C1387      C1392   1.429       .  A
C1388      C1389   1.418       .  A
C1388      H1393   1.084       .  S
C1389      C1390   1.446       .  A
C1389      C1396   1.444       .  S
C1390      C1391   1.404       .  A
C1391      C1392   1.403       .  A
C1391      H2888   1.081       .  S
C1392      C1395   1.438       .  S
H1394      C2885   1.081   1_455  S
C1395      N1397   1.157       .  T
C1396      N1398   1.158       .  T
C1399      C1400   1.403       .  A
C1399      C1404   1.450       .  A
C1399      C2842   1.595   1_455  S
C1400      C1401   1.400       .  A
C1400      H2899   1.086   1_455  S
C1401      C1402   1.432       .  A
C1401      C1408   1.431       .  S
C1402      C1403   1.396       .  A
C1403      C1404   1.412       .  A
C1403      H1406   1.085       .  S
C1404      C1407   1.447       .  S
H1405      C2894   1.086       .  S
C1407      N1409   1.158       .  T
C1408      N2904   1.154   1_455  T
N1410      C2902   1.154       .  T
C1411      C1412   1.412       .  A
C1411      C1416   1.441       .  A
C1412      C1413   1.407       .  A
C1412      H1417   1.073       .  S
C1413      C1414   1.423       .  A
C1413      C1420   1.447       .  S
C1414      C1415   1.403       .  A
C1415      C1416   1.420       .  A
C1415      H1418   1.084       .  S
C1416      C1419   1.442       .  S
C1419      N1421   1.157       .  T
C1420      N1422   1.157       .  T
C1423      C1424   1.428       .  A
C1423      C1428   1.460       .  A
C1424      C1425   1.423       .  A
C1424      H1429   1.084       .  S
C1425      C1426   1.405       .  A
C1426      C1427   1.379       .  A
C1427      C1428   1.406       .  A
C1427      H1430   1.087       .  S
C1428      C1431   1.437       .  S
C1431      N1433   1.155       .  T
C1432      N1434   1.157       .  T
C1435      C1436   1.420       .  A
C1435      C1440   1.450       .  A
C1436      C1437   1.420       .  A
C1436      H1441   1.074       .  S
C1437      C1438   1.421       .  A
C1437      C1444   1.442       .  S
C1438      C1439   1.401       .  A
C1439      C1440   1.419       .  A
C1439      H1442   1.084       .  S
C1440      C1443   1.445       .  S
C1443      N1445   1.158       .  T
C1444      N1446   1.157       .  T
C1447      C1448   1.387       .  A
C1447      C1452   1.413       .  A
C1448      C1449   1.410       .  A
C1448      H1453   1.085       .  S
C1449      C1450   1.449       .  A
C1449      C1456   1.439       .  S
C1450      C1451   1.413       .  A
C1451      C1452   1.405       .  A
C1451      H1454   1.083       .  S
C1452      C1455   1.439       .  S
C1455      N1457   1.156       .  T
C1456      N1458   1.157       .  T
C1459      C1460   1.398       .  A
C1459      C1464   1.441       .  A
C1459      C2842   1.575   1_455  S
C1460      C1461   1.395       .  A
C1460      H2959   1.073   1_455  S
C1461      C1462   1.415       .  A
C1461      C1468   1.446       .  S
C1462      C1463   1.397       .  A
C1463      C1464   1.415       .  A
C1463      H1466   1.085       .  S
C1464      C1467   1.441       .  S
H1465      C2954   1.073       .  S
C1467      N1469   1.157       .  T
C1471      C1472   1.416       .  A
C1471      C1476   1.420       .  A
C1472      C1473   1.395       .  A
C1472      H1477   1.077       .  S
C1473      C1474   1.416       .  A
C1473      C1480   1.444       .  S
C1474      C1475   1.413       .  A
C1475      C1476   1.433       .  A
C1475      H1478   1.081       .  S
C1476      C2973   1.429       .  S
C1479      C2970   1.429       .  S
C1479      N1481   1.156   1_655  T
C1480      N1482   1.156       .  T
C1483      C1484   1.416       .  A
C1483      C1488   1.436       .  A
C1484      C1485   1.415       .  A
C1484      H1489   1.079       .  S
C1485      C1486   1.424       .  A
C1485      C1492   1.445       .  S
C1486      C1487   1.408       .  A
C1487      C1488   1.421       .  A
C1488      C1491   1.441       .  S
C1492      N1494   1.157       .  T
C1495      C1496   1.402       .  A
C1495      C1500   1.435   1_554  A
C1495      C1723   1.520       .  S
C1496      C1995   1.388       .  A
C1496      H1501   1.085       .  S
C1497      C1745   1.388       .  A
C1497      C1498   1.400       .  A
C1497      C1841   1.476       .  S
C1498      C1499   1.413       .  A
C1498      H1502   1.083       .  S
C1499      C1749   1.441       .  A
C1499      C1735   1.532       .  S
C1500      C1997   1.441       .  A
C1500      H2001   1.082       .  S
H1503      C1749   1.082       .  S
C1504      C1505   1.398       .  A
C1504      C2007   1.427   1_554  A
C1504      C1696   1.499       .  S
C1505      C1506   1.384       .  A
C1505      H1510   1.086       .  S
C1506      C2005   1.386   1_554  A
C1506      C2052   1.442       .  S
C1507      C1755   1.386       .  A
C1507      C1508   1.392       .  A
C1507      H1511   1.086       .  S
C1508      C1509   1.428       .  A
C1508      C1711   1.496       .  S
C1509      C1753   1.427       .  A
C1509      H1512   1.082       .  S
C1513      C1763   1.432       .  A
C1513      C1518   1.414       .  A
C1513      C1687   1.538       .  S
C1514      C2011   1.432       .  A
C1514      C1515   1.427   1_556  A
C1514      H1519   1.082       .  S
C1515      C1516   1.397       .  A
C1515      C1675   1.501       .  S
C1516      C2015   1.389       .  A
C1516      H1520   1.086       .  S
C1517      C1765   1.389       .  A
C1517      C1518   1.404       .  A
C1517      C1807   1.487       .  S
C1518      H1521   1.059       .  S
C1522      C1772   1.437       .  A
C1522      C1527   1.394       .  A
C1522      C1663   1.523       .  S
C1523      C2020   1.437       .  A
C1523      C1524   1.445   1_556  A
C1523      H1528   1.082       .  S
C1524      C1525   1.403       .  A
C1524      C1651   1.525       .  S
C1525      C1526   1.388       .  A
C1525      H1529   1.075       .  S
C1526      C2025   1.373   1_554  A
C1526      C2063   1.460       .  S
C1527      C1775   1.373       .  A
C1527      H1530   1.064       .  S
C1531      C1532   1.389       .  A
C1531      C1536   1.431   1_554  A
C1531      C1624   1.500       .  S
C1532      C1533   1.379       .  A
C1532      H1537   1.085       .  S
C1533      C2032   1.396   1_554  A
C1533      C1566   1.464       .  S
C1534      C1782   1.396       .  A
C1534      C1535   1.412       .  A
C1534      H1538   1.073       .  S
C1535      C1785   1.440       .  A
C1535      C1636   1.537       .  S
C1536      C2033   1.440       .  A
C1536      H2037   1.082       .  S
H1539      C1785   1.082       .  S
C1540      C1541   1.445       .  A
C1540      C1545   1.402       .  A
C1540      C1612   1.525       .  S
C1541      C1791   1.445       .  A
C1541      H1795   1.082       .  S
C1542      C2039   1.445   1_554  A
C1542      C1543   1.396       .  A
C1542      C1600   1.526       .  S
C1543      C2042   1.388       .  A
C1543      H1547   1.084       .  S
C1544      C1792   1.388       .  A
C1544      C1545   1.385       .  A
C1544      C1590   1.465       .  S
C1545      H1548   1.084       .  S
H1546      C2039   1.082       .  S
O1549      C1584   1.236       .  S
O1549     Mg2298   2.111       .  S
O1549     Mg2055   2.174       .  S
C1550      H1589   1.081   1_455  S
C1550      O1563   1.264   1_455  A
Mg1551     O2296   2.111       .  S
Mg1551     O2078   2.146   1_565  S
Mg1551     O2840   2.243       .  S
Mg1551     O1591   2.265   1_565  S
Mg1551     O1562   2.325   1_565  S
O1552      C2320   1.234       .  S
O1552     Mg2839   2.137       .  S
O1553      C1584   1.273       .  A
O1553     Mg1577   2.326   1_655  S
C1554      C1755   1.442       .  S
C1554      O1556   1.261       .  A
C1554      O1568   1.268       .  A
O1555      C2330   1.261       .  A
O1555     Mg1557   2.276       .  S
Mg1557     O1798   2.174       .  S
Mg1557     O1571   2.220       .  S
Mg1557     O1808   2.242       .  S
Mg1557     O1563   2.242       .  S
C1558      C2015   1.487       .  S
C1558      O1596   1.271       .  A
C1558      O1564   1.268       .  A
O1559      C1566   1.259       .  A
O1559     Mg2055   2.242       .  S
H1560      C2320   1.081       .  S
C1561      H1586   1.080       .  S
C1561      O1575   1.236       .  S
C1561      O1576   1.271       .  A
O1562      C1585   1.272       .  A
O1563     Mg1826   2.186   1_655  S
O1564     Mg2092   2.275       .  S
C1565      C1775   1.460       .  S
C1565      O1578   1.267       .  A
C1565      O1570   1.262       .  A
C1566      O1593   1.256       .  A
Mg1567     O1574   2.157       .  S
Mg1567     O2073   2.152       .  S
Mg1567     O2066   2.243       .  S
Mg1567     O1569   2.332       .  S
Mg1567     O1596   2.324       .  S
O1568     Mg1816   2.243       .  S
O1569      C1573   1.273       .  A
O1571      C1590   1.266       .  A
O1572      C1592   1.265       .  A
O1572     Mg2086   2.240       .  S
C1573      H2307   1.081   1_545  S
C1573      O2299   1.234   1_545  S
O1575     Mg1816   2.152       .  S
O1575     Mg1594   2.146       .  S
Mg1577     O1593   2.241   1_455  S
Mg1577     O2061   2.186   1_455  S
O1578     Mg2341   2.275       .  S
H1579      C1584   1.081       .  S
O1580      C1583   1.231       .  S
O1580     Mg1800   2.146   1_545  S
O1580     Mg1588   2.112       .  S
H1581      C1583   1.081       .  S
C1583      O2302   1.261   1_545  A
O1587     Mg2341   2.337       .  S
Mg1588     O1821   2.240       .  S
C1590      O1595   1.269       .  A
O1591      C1592   1.264       .  A
C1592      C1995   1.476       .  S
Mg1594     O2548   2.137   1_545  S
Mg1594     O1813   2.275       .  S
Mg1594     O2325   2.275   1_545  S
Mg1594     O2334   2.337   1_545  S
O1595     Mg2547   2.243       .  S
C1597      C1639   1.605       .  S
C1597      C1720   1.585       .  S
C1598      C2350   1.608       .  S
C1598      C2407   1.597       .  S
C1598      C1672   1.624   1_565  S
C1598      C1732   1.600   1_565  S
C1599      C1615   1.618       .  S
C1599      C1627   1.597       .  S
C1599      C1684   1.635       .  S
C1599      C1699   1.588       .  S
C1600      C1601   1.416       .  A
C1600      C1605   1.407       .  A
C1601      C1602   1.410       .  A
C1601      H1606   1.085   1_554  S
C1602      C1603   1.416       .  A
C1602      C2356   1.428       .  S
C1603      C1604   1.436       .  A
C1603      C2345   1.608       .  S
C1604      C1605   1.422       .  A
C1604      H1607   1.079       .  S
C1605      C1608   1.443       .  S
C1608      N1610   1.157       .  T
C1609      C2349   1.428   1_545  S
C1609      N1611   1.152       .  T
C1612      C1613   1.402       .  A
C1612      C1617   1.416       .  A
C1613      C1614   1.428       .  A
C1613      H1618   1.084       .  S
C1614      C1615   1.446       .  A
C1614      C1621   1.439       .  S
C1615      C1616   1.425       .  A
C1616      C1617   1.404       .  A
C1616      H1619   1.077       .  S
C1617      C1620   1.450       .  S
C1620      N1622   1.158       .  T
C1621      N1623   1.157       .  T
C1624      C1625   1.396       .  A
C1624      C1629   1.414       .  A
C1625      C1626   1.414       .  A
C1625      H1630   1.086   1_554  S
C1626      C1627   1.442       .  A
C1626      C1633   1.432       .  S
C1627      C1628   1.421       .  A
C1628      C1629   1.403       .  A
C1628      H1631   1.085       .  S
C1629      C1632   1.442       .  S
C1632      N1634   1.155       .  T
C1633      N1635   1.154   1_554  T
C1636      C1637   1.406       .  A
C1636      C1641   1.429       .  A
C1637      C1638   1.418       .  A
C1637      H1642   1.084       .  S
C1638      C1639   1.446       .  A
C1638      C1645   1.444       .  S
C1639      C1640   1.404       .  A
C1640      C1641   1.403       .  A
C1641      C1644   1.438   1_655  S
C1644      N1646   1.157       .  T
C1645      N1647   1.158       .  T
C1648      C1649   1.403       .  A
C1648      C1653   1.450       .  A
C1649      C1650   1.400       .  A
C1650      C1651   1.432       .  A
C1650      C1657   1.431       .  S
C1651      C1652   1.396       .  A
C1652      C1653   1.412       .  A
C1652      H1655   1.085       .  S
C1653      C1656   1.447       .  S
C1656      N1658   1.158       .  T
C1660      C1661   1.412       .  A
C1660      C1665   1.441       .  A
C1660      C2345   1.597       .  S
C1661      C1662   1.407       .  A
C1661      H1666   1.073       .  S
C1662      C1663   1.423       .  A
C1662      C1669   1.447       .  S
C1663      C1664   1.403       .  A
C1664      C1665   1.420       .  A
C1664      H1667   1.084       .  S
C1665      C1668   1.442       .  S
C1668      N1670   1.157       .  T
C1669      N1671   1.157       .  T
C1672      C1673   1.428       .  A
C1672      C1677   1.460       .  A
C1673      C1674   1.423       .  A
C1673      H1678   1.084   1_545  S
C1674      C1675   1.405       .  A
C1674      C2179   1.438   1_554  S
C1675      C1676   1.379       .  A
C1676      C1677   1.406       .  A
C1676      H1679   1.087       .  S
C1677      C1680   1.437       .  S
C1680      N1682   1.155       .  T
C1681      C1923   1.438       .  S
C1681      N1683   1.157       .  T
C1684      C1685   1.420       .  A
C1684      C1689   1.450       .  A
C1685      C1686   1.420       .  A
C1685      H1690   1.074       .  S
C1686      C1687   1.421       .  A
C1686      C1693   1.442       .  S
C1687      C1688   1.401       .  A
C1688      C1689   1.419       .  A
C1688      H1691   1.084       .  S
C1689      C1692   1.445       .  S
C1692      N1694   1.158       .  T
C1693      N1695   1.157       .  T
C1696      C1697   1.387       .  A
C1696      C1701   1.413       .  A
C1697      C1698   1.410       .  A
C1697      H1702   1.085       .  S
C1698      C1699   1.449       .  A
C1698      C1705   1.439       .  S
C1699      C1700   1.413       .  A
C1700      C1701   1.405       .  A
C1700      H1703   1.083       .  S
C1701      C1704   1.439       .  S
C1704      N1706   1.156   1_554  T
C1705      N1707   1.157       .  T
C1708      C1709   1.398       .  A
C1708      C1713   1.441       .  A
C1709      C1710   1.395       .  A
C1710      C1711   1.415       .  A
C1710      C1717   1.446       .  S
C1711      C1712   1.397       .  A
C1712      C1713   1.415       .  A
C1712      H1715   1.085       .  S
C1713      C1716   1.441       .  S
C1716      N1718   1.157       .  T
C1717      N1968   1.158       .  T
N1719      C2215   1.158   1_554  T
C1720      C1721   1.416       .  A
C1720      C1725   1.420       .  A
C1721      C1722   1.395       .  A
C1721      H1726   1.077       .  S
C1722      C1723   1.416       .  A
C1722      C1729   1.444       .  S
C1723      C1724   1.413       .  A
C1724      C1725   1.433       .  A
C1724      H1727   1.081   1_554  S
C1728      N1730   1.156   1_554  T
C1729      N1731   1.156       .  T
C1732      C1733   1.416       .  A
C1732      C1737   1.436       .  A
C1733      C1734   1.415       .  A
C1733      H1738   1.079   1_545  S
C1734      C1735   1.424       .  A
C1734      C1741   1.445       .  S
C1735      C1736   1.408       .  A
C1736      C1737   1.421       .  A
C1736      H1988   1.084       .  S
C1737      C1740   1.441       .  S
H1739      C2234   1.084       .  S
C1740      N2489   1.156       .  T
C1741      N1743   1.157       .  T
N1742      C2487   1.156       .  T
C1744      C1745   1.402       .  A
C1744      C1749   1.435       .  A
C1744      C1972   1.520       .  S
C1745      H1750   1.085       .  S
C1746      C1994   1.388       .  A
C1746      C1747   1.400       .  A
C1746      C2090   1.476       .  S
C1747      C1748   1.413       .  A
C1747      H1751   1.083       .  S
C1748      C1998   1.441       .  A
C1748      C1984   1.532       .  S
H1752      C1998   1.082       .  S
C1753      C1754   1.398       .  A
C1753      C1945   1.499       .  S
C1754      C1755   1.384       .  A
C1754      H1759   1.086       .  S
C1756      C2004   1.386       .  A
C1756      C1757   1.392       .  A
C1756      H1760   1.086       .  S
C1757      C1758   1.428       .  A
C1757      C1960   1.496       .  S
C1758      C2002   1.427       .  A
C1758      H1761   1.082       .  S
C1762      C2012   1.432       .  A
C1762      C1767   1.414       .  A
C1762      C1936   1.538       .  S
C1763      C1764   1.427       .  A
C1763      H1768   1.082       .  S
C1764      C1765   1.397       .  A
C1764      C1924   1.501       .  S
C1765      H1769   1.086       .  S
C1766      C2014   1.389       .  A
C1766      C1767   1.404       .  A
C1766      C2056   1.487       .  S
C1767      H1770   1.059       .  S
C1771      C2021   1.437       .  A
C1771      C1776   1.394       .  A
C1771      C1912   1.523       .  S
C1772      C1773   1.445       .  A
C1772      H1777   1.082       .  S
C1773      C1774   1.403       .  A
C1773      C1900   1.525       .  S
C1774      C1775   1.388       .  A
C1774      H1778   1.075       .  S
C1776      C2024   1.373       .  A
C1776      H1779   1.064       .  S
C1780      C1781   1.389       .  A
C1780      C1785   1.431       .  A
C1780      C1873   1.500       .  S
C1781      C1782   1.379       .  A
C1781      H1786   1.085       .  S
C1782      C1815   1.464       .  S
C1783      C2031   1.396       .  A
C1783      C1784   1.412       .  A
C1783      H1787   1.073       .  S
C1784      C2034   1.440       .  A
C1784      C1885   1.537       .  S
H1788      C2034   1.082       .  S
C1789      C1790   1.445       .  A
C1789      C1794   1.402       .  A
C1789      C1861   1.525       .  S
C1790      C2040   1.445       .  A
C1790      H2044   1.082       .  S
C1791      C1792   1.396       .  A
C1791      C1849   1.526       .  S
C1792      H1796   1.084       .  S
C1793      C2041   1.388       .  A
C1793      C1794   1.385       .  A
C1793      C1839   1.465       .  S
C1794      H1797   1.084       .  S
O1798      C1833   1.236       .  S
O1798     Mg2547   2.111       .  S
C1799      H1838   1.081   1_455  S
C1799      O1812   1.264   1_455  A
Mg1800     O2545   2.111       .  S
Mg1800     O2342   2.243       .  S
Mg1800     O1840   2.265   1_565  S
Mg1800     O1811   2.325   1_565  S
O1801      C2569   1.234       .  S
O1801     Mg2341   2.137       .  S
O1802      C1833   1.273       .  A
O1802     Mg1826   2.326   1_655  S
C1803      C2004   1.442       .  S
C1803      O1805   1.261       .  A
C1803      O1817   1.268       .  A
O1804      C2579   1.261       .  A
O1804     Mg1806   2.276       .  S
Mg1806     O2047   2.174       .  S
Mg1806     O1820   2.220       .  S
Mg1806     O2057   2.242       .  S
Mg1806     O1812   2.242       .  S
C1807      O1845   1.271       .  A
C1807      O1813   1.268       .  A
O1808      C1815   1.259       .  A
H1809      C2569   1.081       .  S
C1810      H1835   1.080       .  S
C1810      O1824   1.236       .  S
C1810      O1825   1.271       .  A
O1811      C1834   1.272       .  A
O1812     Mg2075   2.186   1_655  S
C1814      C2024   1.460       .  S
C1814      O1827   1.267       .  A
C1814      O1819   1.262       .  A
C1815      O1842   1.256       .  A
Mg1816     O1823   2.157       .  S
Mg1816     O1818   2.332       .  S
Mg1816     O1845   2.324       .  S
O1817     Mg2065   2.243       .  S
O1818      C1822   1.273       .  A
O1820      C1839   1.266       .  A
O1821      C1841   1.265       .  A
C1822      H2556   1.081   1_545  S
C1822      O2548   1.234   1_545  S
O1824     Mg2065   2.152       .  S
O1824     Mg1843   2.146       .  S
Mg1826     O1842   2.241   1_455  S
O1827     Mg2590   2.275       .  S
H1828      C1833   1.081       .  S
O1829      C1832   1.231       .  S
O1829     Mg2049   2.146   1_545  S
O1829     Mg1837   2.112       .  S
H1830      C1832   1.081       .  S
C1832      O2551   1.261   1_545  A
O1836     Mg2590   2.337       .  S
Mg1837     O2070   2.240       .  S
C1839      O1844   1.269       .  A
O1840      C1841   1.264       .  A
Mg1843     O2797   2.137   1_545  S
Mg1843     O2062   2.275       .  S
Mg1843     O2574   2.275   1_545  S
Mg1843     O2583   2.337   1_545  S
O1844     Mg2796   2.243       .  S
C1846      C1888   1.605       .  S
C1846      C1969   1.585       .  S
C1847      C2599   1.608       .  S
C1847      C2656   1.597       .  S
C1847      C1921   1.624   1_565  S
C1847      C1981   1.600   1_565  S
C1848      C1864   1.618       .  S
C1848      C1876   1.597       .  S
C1848      C1933   1.635       .  S
C1848      C1948   1.588       .  S
C1849      C1850   1.416       .  A
C1849      C1854   1.407       .  A
C1850      C1851   1.410       .  A
C1850      H1855   1.085       .  S
C1851      C1852   1.416       .  A
C1851      C2605   1.428       .  S
C1852      C1853   1.436       .  A
C1852      C2594   1.608       .  S
C1853      C1854   1.422       .  A
C1853      H1856   1.079       .  S
C1854      C1857   1.443       .  S
C1857      N1859   1.157       .  T
C1858      C2598   1.428   1_545  S
C1858      N1860   1.152       .  T
C1861      C1862   1.402       .  A
C1861      C1866   1.416       .  A
C1862      C1863   1.428       .  A
C1862      H1867   1.084       .  S
C1863      C1864   1.446       .  A
C1863      C1870   1.439       .  S
C1864      C1865   1.425       .  A
C1865      C1866   1.404       .  A
C1865      H1868   1.077       .  S
C1866      C1869   1.450       .  S
C1869      N1871   1.158       .  T
C1870      N1872   1.157       .  T
C1873      C1874   1.396       .  A
C1873      C1878   1.414       .  A
C1874      C1875   1.414       .  A
C1874      H1879   1.086       .  S
C1875      C1876   1.442       .  A
C1875      C1882   1.432       .  S
C1876      C1877   1.421       .  A
C1877      C1878   1.403       .  A
C1877      H1880   1.085       .  S
C1878      C1881   1.442       .  S
C1881      N1883   1.155       .  T
C1882      N1884   1.154       .  T
C1885      C1886   1.406       .  A
C1885      C1890   1.429       .  A
C1886      C1887   1.418       .  A
C1886      H1891   1.084       .  S
C1887      C1888   1.446       .  A
C1887      C1894   1.444       .  S
C1888      C1889   1.404       .  A
C1889      C1890   1.403       .  A
C1890      C1893   1.438   1_655  S
C1893      N1895   1.157       .  T
C1894      N1896   1.158       .  T
C1897      C1898   1.403       .  A
C1897      C1902   1.450       .  A
C1898      C1899   1.400       .  A
C1899      C1900   1.432       .  A
C1899      C1906   1.431       .  S
C1900      C1901   1.396       .  A
C1901      C1902   1.412       .  A
C1901      H1904   1.085       .  S
C1902      C1905   1.447       .  S
C1905      N1907   1.158       .  T
C1909      C1910   1.412       .  A
C1909      C1914   1.441       .  A
C1909      C2594   1.597       .  S
C1910      C1911   1.407       .  A
C1910      H1915   1.073       .  S
C1911      C1912   1.423       .  A
C1911      C1918   1.447       .  S
C1912      C1913   1.403       .  A
C1913      C1914   1.420       .  A
C1913      H1916   1.084       .  S
C1914      C1917   1.442       .  S
C1917      N1919   1.157       .  T
C1918      N1920   1.157       .  T
C1921      C1922   1.428       .  A
C1921      C1926   1.460       .  A
C1922      C1923   1.423       .  A
C1922      H1927   1.084   1_545  S
C1923      C1924   1.405       .  A
C1924      C1925   1.379       .  A
C1925      C1926   1.406       .  A
C1925      H1928   1.087       .  S
C1926      C1929   1.437       .  S
C1929      N1931   1.155       .  T
C1930      C2172   1.438       .  S
C1930      N1932   1.157       .  T
C1933      C1934   1.420       .  A
C1933      C1938   1.450       .  A
C1934      C1935   1.420       .  A
C1934      H1939   1.074       .  S
C1935      C1936   1.421       .  A
C1935      C1942   1.442       .  S
C1936      C1937   1.401       .  A
C1937      C1938   1.419       .  A
C1937      H1940   1.084       .  S
C1938      C1941   1.445       .  S
C1941      N1943   1.158       .  T
C1942      N1944   1.157       .  T
C1945      C1946   1.387       .  A
C1945      C1950   1.413       .  A
C1946      C1947   1.410       .  A
C1946      H1951   1.085       .  S
C1947      C1948   1.449       .  A
C1947      C1954   1.439       .  S
C1948      C1949   1.413       .  A
C1949      C1950   1.405       .  A
C1949      H1952   1.083       .  S
C1950      C1953   1.439       .  S
C1953      N1955   1.156       .  T
C1954      N1956   1.157       .  T
C1957      C1958   1.398       .  A
C1957      C1962   1.441       .  A
C1958      C1959   1.395       .  A
C1959      C1960   1.415       .  A
C1959      C1966   1.446       .  S
C1960      C1961   1.397       .  A
C1961      C1962   1.415       .  A
C1961      H1964   1.085       .  S
C1962      C1965   1.441       .  S
C1965      N1967   1.157       .  T
C1966      N2217   1.158       .  T
C1969      C1970   1.416       .  A
C1969      C1974   1.420       .  A
C1970      C1971   1.395       .  A
C1970      H1975   1.077       .  S
C1971      C1972   1.416       .  A
C1971      C1978   1.444       .  S
C1972      C1973   1.413       .  A
C1973      C1974   1.433       .  A
C1973      H1976   1.081       .  S
C1977      N1979   1.156       .  T
C1978      N1980   1.156       .  T
C1981      C1982   1.416       .  A
C1981      C1986   1.436       .  A
C1982      C1983   1.415       .  A
C1982      H1987   1.079   1_545  S
C1983      C1984   1.424       .  A
C1983      C1990   1.445       .  S
C1984      C1985   1.408       .  A
C1985      C1986   1.421       .  A
C1985      H2237   1.084       .  S
C1986      C1989   1.441       .  S
C1989      N2738   1.156       .  T
C1990      N1992   1.157       .  T
N1991      C2736   1.156       .  T
C1993      C1994   1.402       .  A
C1993      C1998   1.435       .  A
C1993      C2221   1.520       .  S
C1994      H1999   1.085       .  S
C1995      C1996   1.400   1_554  A
C1996      C1997   1.413       .  A
C1996      H2000   1.083       .  S
C1997      C2233   1.532       .  S
C2002      C2003   1.398       .  A
C2002      C2194   1.499       .  S
C2003      C2004   1.384       .  A
C2003      H2008   1.086       .  S
C2005      C2006   1.392       .  A
C2005      H2009   1.086       .  S
C2006      C2007   1.428       .  A
C2006      C2209   1.496       .  S
C2007      H2010   1.082       .  S
C2011      C2016   1.414   1_556  A
C2011      C2185   1.538       .  S
C2012      C2013   1.427       .  A
C2012      H2017   1.082       .  S
C2013      C2014   1.397       .  A
C2013      C2173   1.501       .  S
C2014      H2018   1.086       .  S
C2015      C2016   1.404       .  A
C2016      H2019   1.059       .  S
C2020      C2025   1.394       .  A
C2020      C2161   1.523       .  S
C2021      C2022   1.445       .  A
C2021      H2026   1.082       .  S
C2022      C2023   1.403       .  A
C2022      C2149   1.525       .  S
C2023      C2024   1.388       .  A
C2023      H2027   1.075       .  S
C2025      H2028   1.064       .  S
C2029      C2030   1.389       .  A
C2029      C2034   1.431       .  A
C2029      C2122   1.500       .  S
C2030      C2031   1.379       .  A
C2030      H2035   1.085       .  S
C2031      C2064   1.464       .  S
C2032      C2033   1.412       .  A
C2032      H2036   1.073       .  S
C2033      C2134   1.537       .  S
C2038      C2039   1.445       .  A
C2038      C2043   1.402       .  A
C2038      C2110   1.525       .  S
C2040      C2041   1.396       .  A
C2040      C2098   1.526       .  S
C2041      H2045   1.084       .  S
C2042      C2043   1.385   1_554  A
C2042      C2088   1.465       .  S
C2043      H2046   1.084       .  S
O2047      C2082   1.236       .  S
O2047     Mg2796   2.111       .  S
C2048      H2087   1.081   1_455  S
C2048      O2061   1.264   1_456  A
Mg2049     O2794   2.111       .  S
Mg2049     O2591   2.243       .  S
Mg2049     O2089   2.265   1_565  S
Mg2049     O2060   2.325   1_565  S
O2050      C2818   1.234       .  S
O2050     Mg2590   2.137       .  S
O2051      C2082   1.273       .  A
O2051     Mg2075   2.326   1_655  S
C2052      O2054   1.261       .  A
C2052      O2066   1.268       .  A
O2053      C2828   1.261       .  A
O2053     Mg2055   2.276   1_556  S
Mg2055     O2069   2.220       .  S
Mg2055     O2061   2.242       .  S
C2056      O2094   1.271       .  A
C2056      O2062   1.268       .  A
O2057      C2064   1.259       .  A
H2058      C2818   1.081       .  S
C2059      H2084   1.080       .  S
C2059      O2073   1.236   1_556  S
C2059      O2074   1.271       .  A
O2060      C2083   1.272       .  A
C2063      O2076   1.267       .  A
C2063      O2068   1.262       .  A
C2064      O2091   1.256       .  A
Mg2065     O2072   2.157       .  S
Mg2065     O2067   2.332       .  S
Mg2065     O2094   2.324       .  S
O2067      C2071   1.273       .  A
O2069      C2088   1.266       .  A
O2070      C2090   1.265       .  A
C2071      H2805   1.081   1_545  S
C2071      O2797   1.234   1_545  S
O2073     Mg2092   2.146       .  S
Mg2075     O2091   2.241   1_455  S
O2076     Mg2839   2.275       .  S
H2077      C2082   1.081       .  S
O2078      C2081   1.231   1_554  S
O2078     Mg2086   2.112       .  S
H2079      C2081   1.081       .  S
C2081      O2800   1.261   1_545  A
O2085     Mg2839   2.337   1_556  S
C2088      O2093   1.269       .  A
O2089      C2090   1.264       .  A
Mg2092     O2299   2.137   1_545  S
Mg2092     O2823   2.275   1_545  S
Mg2092     O2832   2.337   1_544  S
O2093     Mg2298   2.243       .  S
C2095      C2137   1.605       .  S
C2095      C2218   1.585       .  S
C2096      C2848   1.608       .  S
C2096      C2905   1.597       .  S
C2096      C2170   1.624   1_565  S
C2096      C2230   1.600   1_565  S
C2097      C2113   1.618       .  S
C2097      C2125   1.597       .  S
C2097      C2182   1.635       .  S
C2097      C2197   1.588       .  S
C2098      C2099   1.416       .  A
C2098      C2103   1.407       .  A
C2099      C2100   1.410       .  A
C2099      H2104   1.085       .  S
C2100      C2101   1.416       .  A
C2100      C2854   1.428       .  S
C2101      C2102   1.436       .  A
C2101      C2843   1.608       .  S
C2102      C2103   1.422       .  A
C2102      H2105   1.079       .  S
C2103      C2106   1.443       .  S
C2106      N2108   1.157       .  T
C2107      C2847   1.428   1_545  S
C2107      N2109   1.152       .  T
C2110      C2111   1.402       .  A
C2110      C2115   1.416       .  A
C2111      C2112   1.428       .  A
C2111      H2116   1.084       .  S
C2112      C2113   1.446       .  A
C2112      C2119   1.439       .  S
C2113      C2114   1.425       .  A
C2114      C2115   1.404       .  A
C2114      H2117   1.077       .  S
C2115      C2118   1.450       .  S
C2118      N2120   1.158       .  T
C2119      N2121   1.157       .  T
C2122      C2123   1.396       .  A
C2122      C2127   1.414       .  A
C2123      C2124   1.414       .  A
C2123      H2128   1.086       .  S
C2124      C2125   1.442       .  A
C2124      C2131   1.432       .  S
C2125      C2126   1.421       .  A
C2126      C2127   1.403       .  A
C2126      H2129   1.085       .  S
C2127      C2130   1.442       .  S
C2130      N2132   1.155       .  T
C2131      N2133   1.154       .  T
C2134      C2135   1.406       .  A
C2134      C2139   1.429       .  A
C2135      C2136   1.418       .  A
C2135      H2140   1.084       .  S
C2136      C2137   1.446       .  A
C2136      C2143   1.444       .  S
C2137      C2138   1.404       .  A
C2138      C2139   1.403       .  A
C2139      C2142   1.438   1_655  S
C2142      N2144   1.157       .  T
C2143      N2145   1.158       .  T
C2146      C2147   1.403       .  A
C2146      C2151   1.450       .  A
C2147      C2148   1.400       .  A
C2148      C2149   1.432       .  A
C2148      C2155   1.431       .  S
C2149      C2150   1.396       .  A
C2150      C2151   1.412       .  A
C2150      H2153   1.085       .  S
C2151      C2154   1.447       .  S
C2154      N2156   1.158       .  T
C2158      C2159   1.412       .  A
C2158      C2163   1.441       .  A
C2158      C2843   1.597       .  S
C2159      C2160   1.407       .  A
C2159      H2164   1.073       .  S
C2160      C2161   1.423       .  A
C2160      C2167   1.447       .  S
C2161      C2162   1.403       .  A
C2162      C2163   1.420       .  A
C2162      H2165   1.084       .  S
C2163      C2166   1.442       .  S
C2166      N2168   1.157       .  T
C2167      N2169   1.157       .  T
C2170      C2171   1.428       .  A
C2170      C2175   1.460       .  A
C2171      C2172   1.423       .  A
C2171      H2176   1.084   1_545  S
C2172      C2173   1.405       .  A
C2173      C2174   1.379       .  A
C2174      C2175   1.406       .  A
C2174      H2177   1.087       .  S
C2175      C2178   1.437       .  S
C2178      N2180   1.155       .  T
C2179      N2181   1.157       .  T
C2182      C2183   1.420       .  A
C2182      C2187   1.450       .  A
C2183      C2184   1.420       .  A
C2183      H2188   1.074       .  S
C2184      C2185   1.421       .  A
C2184      C2191   1.442       .  S
C2185      C2186   1.401       .  A
C2186      C2187   1.419       .  A
C2186      H2189   1.084       .  S
C2187      C2190   1.445       .  S
C2190      N2192   1.158       .  T
C2191      N2193   1.157       .  T
C2194      C2195   1.387       .  A
C2194      C2199   1.413       .  A
C2195      C2196   1.410       .  A
C2195      H2200   1.085       .  S
C2196      C2197   1.449       .  A
C2196      C2203   1.439       .  S
C2197      C2198   1.413       .  A
C2198      C2199   1.405       .  A
C2198      H2201   1.083       .  S
C2199      C2202   1.439       .  S
C2202      N2204   1.156       .  T
C2203      N2205   1.157       .  T
C2206      C2207   1.398       .  A
C2206      C2211   1.441       .  A
C2207      C2208   1.395       .  A
C2208      C2209   1.415       .  A
C2208      C2215   1.446       .  S
C2209      C2210   1.397       .  A
C2210      C2211   1.415       .  A
C2210      H2213   1.085       .  S
C2211      C2214   1.441       .  S
C2214      N2216   1.157       .  T
C2218      C2219   1.416       .  A
C2218      C2223   1.420       .  A
C2219      C2220   1.395       .  A
C2219      H2224   1.077       .  S
C2220      C2221   1.416       .  A
C2220      C2227   1.444       .  S
C2221      C2222   1.413       .  A
C2222      C2223   1.433       .  A
C2222      H2225   1.081       .  S
C2226      N2228   1.156       .  T
C2227      N2229   1.156       .  T
C2230      C2231   1.416       .  A
C2230      C2235   1.436       .  A
C2231      C2232   1.415       .  A
C2231      H2236   1.079   1_545  S
C2232      C2233   1.424       .  A
C2232      C2239   1.445       .  S
C2233      C2234   1.408       .  A
C2234      C2235   1.421       .  A
C2235      C2238   1.441       .  S
C2238      N2987   1.156       .  T
C2239      N2241   1.157       .  T
N2240      C2985   1.156       .  T
C2242      C2243   1.402       .  A
C2242      C2247   1.435   1_554  A
C2242      C2470   1.520       .  S
C2243      C2742   1.388       .  A
C2243      H2248   1.085       .  S
C2244      C2492   1.388       .  A
C2244      C2245   1.400       .  A
C2244      C2588   1.476       .  S
C2245      C2246   1.413       .  A
C2245      H2249   1.083       .  S
C2246      C2496   1.441       .  A
C2246      C2482   1.532       .  S
C2247      C2744   1.441       .  A
C2247      H2748   1.082       .  S
H2250      C2496   1.082       .  S
C2251      C2252   1.398       .  A
C2251      C2754   1.427   1_554  A
C2251      C2443   1.499       .  S
C2252      C2253   1.384       .  A
C2252      H2257   1.086       .  S
C2253      C2752   1.386   1_554  A
C2253      C2799   1.442       .  S
C2254      C2502   1.386       .  A
C2254      C2255   1.392       .  A
C2254      H2258   1.086       .  S
C2255      C2256   1.428       .  A
C2255      C2458   1.496       .  S
C2256      C2500   1.427       .  A
C2256      H2259   1.082       .  S
C2260      C2510   1.432       .  A
C2260      C2265   1.414       .  A
C2260      C2434   1.538       .  S
C2261      C2758   1.432       .  A
C2261      C2262   1.427   1_556  A
C2261      H2266   1.082       .  S
C2262      C2263   1.397       .  A
C2262      C2422   1.501       .  S
C2263      C2762   1.389       .  A
C2263      H2267   1.086       .  S
C2264      C2512   1.389       .  A
C2264      C2265   1.404       .  A
C2264      C2554   1.487       .  S
C2265      H2268   1.059       .  S
C2269      C2519   1.437       .  A
C2269      C2274   1.394       .  A
C2269      C2410   1.523       .  S
C2270      C2767   1.437       .  A
C2270      C2271   1.445   1_556  A
C2270      H2275   1.082       .  S
C2271      C2272   1.403       .  A
C2271      C2398   1.525       .  S
C2272      C2273   1.388       .  A
C2272      H2276   1.075       .  S
C2273      C2772   1.373   1_554  A
C2273      C2810   1.460       .  S
C2274      C2522   1.373       .  A
C2274      H2277   1.064       .  S
C2278      C2279   1.389       .  A
C2278      C2283   1.431   1_554  A
C2278      C2371   1.500       .  S
C2279      C2280   1.378       .  A
C2279      H2284   1.085       .  S
C2280      C2779   1.396   1_554  A
C2280      C2313   1.464       .  S
C2281      C2529   1.396       .  A
C2281      C2282   1.412       .  A
C2281      H2285   1.073       .  S
C2282      C2532   1.440       .  A
C2282      C2383   1.537       .  S
C2283      C2780   1.440       .  A
C2283      H2784   1.082       .  S
H2286      C2532   1.082       .  S
C2287      C2288   1.445       .  A
C2287      C2292   1.402       .  A
C2287      C2359   1.525       .  S
C2288      C2538   1.445       .  A
C2288      H2542   1.082       .  S
C2289      C2786   1.445   1_554  A
C2289      C2290   1.396       .  A
C2289      C2347   1.526       .  S
C2290      C2789   1.388       .  A
C2290      H2294   1.084       .  S
C2291      C2539   1.388       .  A
C2291      C2292   1.385       .  A
C2291      C2337   1.465       .  S
C2292      H2295   1.084       .  S
H2293      C2786   1.082       .  S
O2296      C2331   1.236       .  S
O2296     Mg2802   2.174       .  S
C2297      H2336   1.081   1_455  S
C2297      O2310   1.264   1_455  A
Mg2298     O2825   2.146       .  S
Mg2298     O2338   2.265       .  S
Mg2298     O2309   2.325       .  S
O2300      C2331   1.273       .  A
O2300     Mg2324   2.326   1_655  S
C2301      C2502   1.442       .  S
C2301      O2303   1.261       .  A
C2301      O2315   1.268       .  A
O2302     Mg2304   2.276       .  S
Mg2304     O2545   2.174       .  S
Mg2304     O2318   2.220       .  S
Mg2304     O2555   2.242       .  S
Mg2304     O2310   2.242       .  S
C2305      C2762   1.487       .  S
C2305      O2343   1.271       .  A
C2305      O2311   1.268       .  A
O2306      C2313   1.259       .  A
O2306     Mg2802   2.242       .  S
C2308      H2333   1.080       .  S
C2308      O2322   1.236       .  S
C2308      O2323   1.271       .  A
O2309      C2332   1.272       .  A
O2310     Mg2573   2.186   1_655  S
O2311     Mg2839   2.275       .  S
C2312      C2522   1.460       .  S
C2312      O2325   1.267       .  A
C2312      O2317   1.262       .  A
C2313      O2340   1.256       .  A
Mg2314     O2321   2.157       .  S
Mg2314     O2820   2.152       .  S
Mg2314     O2813   2.243       .  S
Mg2314     O2316   2.332       .  S
Mg2314     O2343   2.324       .  S
O2315     Mg2563   2.243       .  S
O2316      C2320   1.273       .  A
O2318      C2337   1.266       .  A
O2319      C2339   1.265       .  A
O2319     Mg2833   2.240       .  S
O2322     Mg2563   2.152       .  S
O2322     Mg2341   2.146       .  S
Mg2324     O2340   2.241   1_455  S
Mg2324     O2808   2.186   1_455  S
H2326      C2331   1.081       .  S
O2327      C2330   1.231       .  S
O2327     Mg2547   2.146       .  S
O2327     Mg2335   2.112       .  S
H2328      C2330   1.081       .  S
Mg2335     O2568   2.240       .  S
C2337      O2342   1.269       .  A
O2338      C2339   1.264       .  A
C2339      C2742   1.476       .  S
Mg2341     O2560   2.275       .  S
C2344      C2386   1.605       .  S
C2344      C2467   1.585       .  S
C2345      C2419   1.624       .  S
C2345      C2479   1.600       .  S
C2346      C2362   1.618       .  S
C2346      C2374   1.597       .  S
C2346      C2431   1.635       .  S
C2346      C2446   1.588       .  S
C2347      C2348   1.416       .  A
C2347      C2352   1.407       .  A
C2348      C2349   1.410       .  A
C2348      H2353   1.085   1_554  S
C2349      C2350   1.416       .  A
C2350      C2351   1.436       .  A
C2351      C2352   1.422       .  A
C2351      H2354   1.079       .  S
C2352      C2355   1.443       .  S
C2355      N2357   1.157       .  T
C2356      N2358   1.152       .  T
C2359      C2360   1.402       .  A
C2359      C2364   1.416       .  A
C2360      C2361   1.428       .  A
C2360      H2365   1.084       .  S
C2361      C2362   1.446       .  A
C2361      C2368   1.439       .  S
C2362      C2363   1.425       .  A
C2363      C2364   1.404       .  A
C2363      H2366   1.077       .  S
C2364      C2367   1.450       .  S
C2367      N2369   1.158       .  T
C2368      N2370   1.157       .  T
C2371      C2372   1.396       .  A
C2371      C2376   1.414       .  A
C2372      C2373   1.414       .  A
C2372      H2377   1.086   1_554  S
C2373      C2374   1.442       .  A
C2373      C2380   1.432       .  S
C2374      C2375   1.421       .  A
C2375      C2376   1.403       .  A
C2375      H2378   1.085       .  S
C2376      C2379   1.442       .  S
C2379      N2381   1.155       .  T
C2380      N2382   1.154   1_554  T
C2383      C2384   1.406       .  A
C2383      C2388   1.429       .  A
C2384      C2385   1.418       .  A
C2384      H2389   1.084       .  S
C2385      C2386   1.446       .  A
C2385      C2392   1.444       .  S
C2386      C2387   1.404       .  A
C2387      C2388   1.403       .  A
C2388      C2391   1.438   1_655  S
C2391      N2393   1.157       .  T
C2392      N2394   1.158       .  T
C2395      C2396   1.403       .  A
C2395      C2400   1.450       .  A
C2396      C2397   1.400       .  A
C2397      C2398   1.432       .  A
C2397      C2404   1.431       .  S
C2398      C2399   1.396       .  A
C2399      C2400   1.412       .  A
C2399      H2402   1.085       .  S
C2400      C2403   1.447       .  S
C2403      N2405   1.158       .  T
C2407      C2408   1.412       .  A
C2407      C2412   1.441       .  A
C2408      C2409   1.407       .  A
C2408      H2413   1.073       .  S
C2409      C2410   1.423       .  A
C2409      C2416   1.447       .  S
C2410      C2411   1.403       .  A
C2411      C2412   1.420       .  A
C2411      H2414   1.084       .  S
C2412      C2415   1.442       .  S
C2415      N2417   1.157       .  T
C2416      N2418   1.157       .  T
C2419      C2420   1.428       .  A
C2419      C2424   1.460       .  A
C2420      C2421   1.423       .  A
C2420      H2425   1.084       .  S
C2421      C2422   1.405       .  A
C2421      C2926   1.438   1_554  S
C2422      C2423   1.379       .  A
C2423      C2424   1.406       .  A
C2423      H2426   1.087       .  S
C2424      C2427   1.437       .  S
C2427      N2429   1.155       .  T
C2428      C2670   1.438       .  S
C2428      N2430   1.157       .  T
C2431      C2432   1.420       .  A
C2431      C2436   1.450       .  A
C2432      C2433   1.420       .  A
C2432      H2437   1.074       .  S
C2433      C2434   1.421       .  A
C2433      C2440   1.442       .  S
C2434      C2435   1.401       .  A
C2435      C2436   1.419       .  A
C2435      H2438   1.084       .  S
C2436      C2439   1.445       .  S
C2439      N2441   1.158       .  T
C2440      N2442   1.157       .  T
C2443      C2444   1.387       .  A
C2443      C2448   1.413       .  A
C2444      C2445   1.410       .  A
C2444      H2449   1.085       .  S
C2445      C2446   1.449       .  A
C2445      C2452   1.439       .  S
C2446      C2447   1.413       .  A
C2447      C2448   1.405       .  A
C2447      H2450   1.083       .  S
C2448      C2451   1.439       .  S
C2451      N2453   1.156   1_554  T
C2452      N2454   1.157       .  T
C2455      C2456   1.398       .  A
C2455      C2460   1.441       .  A
C2456      C2457   1.395       .  A
C2457      C2458   1.415       .  A
C2457      C2464   1.446       .  S
C2458      C2459   1.397       .  A
C2459      C2460   1.415       .  A
C2459      H2462   1.085       .  S
C2460      C2463   1.441       .  S
C2463      N2465   1.157       .  T
C2464      N2715   1.158       .  T
N2466      C2962   1.158   1_554  T
C2467      C2468   1.416       .  A
C2467      C2472   1.420       .  A
C2468      C2469   1.395       .  A
C2468      H2473   1.077       .  S
C2469      C2470   1.416       .  A
C2469      C2476   1.444       .  S
C2470      C2471   1.413       .  A
C2471      C2472   1.433       .  A
C2471      H2474   1.081   1_554  S
C2475      N2477   1.156   1_554  T
C2476      N2478   1.156       .  T
C2479      C2480   1.416       .  A
C2479      C2484   1.436       .  A
C2480      C2481   1.415       .  A
C2480      H2485   1.079       .  S
C2481      C2482   1.424       .  A
C2481      C2488   1.445       .  S
C2482      C2483   1.408       .  A
C2483      C2484   1.421       .  A
C2483      H2735   1.084       .  S
C2484      C2487   1.441       .  S
H2486      C2981   1.084       .  S
C2488      N2490   1.157       .  T
C2491      C2492   1.402       .  A
C2491      C2496   1.435       .  A
C2491      C2719   1.520       .  S
C2492      H2497   1.085       .  S
C2493      C2741   1.388       .  A
C2493      C2494   1.400       .  A
C2493      C2837   1.476       .  S
C2494      C2495   1.413       .  A
C2494      H2498   1.083       .  S
C2495      C2745   1.441       .  A
C2495      C2731   1.532       .  S
H2499      C2745   1.082       .  S
C2500      C2501   1.398       .  A
C2500      C2692   1.499       .  S
C2501      C2502   1.384       .  A
C2501      H2506   1.086       .  S
C2503      C2751   1.386       .  A
C2503      C2504   1.392       .  A
C2503      H2507   1.086       .  S
C2504      C2505   1.428       .  A
C2504      C2707   1.496       .  S
C2505      C2749   1.427       .  A
C2505      H2508   1.082       .  S
C2509      C2759   1.432       .  A
C2509      C2514   1.414       .  A
C2509      C2683   1.538       .  S
C2510      C2511   1.427       .  A
C2510      H2515   1.082       .  S
C2511      C2512   1.397       .  A
C2511      C2671   1.501       .  S
C2512      H2516   1.086       .  S
C2513      C2761   1.389       .  A
C2513      C2514   1.404       .  A
C2513      C2803   1.487       .  S
C2514      H2517   1.059       .  S
C2518      C2768   1.437       .  A
C2518      C2523   1.394       .  A
C2518      C2659   1.523       .  S
C2519      C2520   1.445       .  A
C2519      H2524   1.082       .  S
C2520      C2521   1.403       .  A
C2520      C2647   1.525       .  S
C2521      C2522   1.388       .  A
C2521      H2525   1.075       .  S
C2523      C2771   1.373       .  A
C2523      H2526   1.064       .  S
C2527      C2528   1.389       .  A
C2527      C2532   1.431       .  A
C2527      C2620   1.500       .  S
C2528      C2529   1.378       .  A
C2528      H2533   1.085       .  S
C2529      C2562   1.464       .  S
C2530      C2778   1.396       .  A
C2530      C2531   1.412       .  A
C2530      H2534   1.073       .  S
C2531      C2781   1.440       .  A
C2531      C2632   1.537       .  S
H2535      C2781   1.082       .  S
C2536      C2537   1.445       .  A
C2536      C2541   1.402       .  A
C2536      C2608   1.525       .  S
C2537      C2787   1.445       .  A
C2537      H2791   1.082       .  S
C2538      C2539   1.396       .  A
C2538      C2596   1.526       .  S
C2539      H2543   1.084       .  S
C2540      C2788   1.388       .  A
C2540      C2541   1.385       .  A
C2540      C2586   1.465       .  S
C2541      H2544   1.084       .  S
O2545      C2580   1.236       .  S
C2546      H2585   1.081   1_455  S
C2546      O2559   1.264   1_455  A
Mg2547     O2587   2.265       .  S
Mg2547     O2558   2.325       .  S
O2549      C2580   1.273       .  A
O2549     Mg2573   2.326   1_655  S
C2550      C2751   1.442       .  S
C2550      O2552   1.261       .  A
C2550      O2564   1.268       .  A
O2551     Mg2553   2.276       .  S
Mg2553     O2794   2.174       .  S
Mg2553     O2567   2.220       .  S
Mg2553     O2804   2.242       .  S
Mg2553     O2559   2.242       .  S
C2554      O2592   1.271       .  A
C2554      O2560   1.268       .  A
O2555      C2562   1.259       .  A
C2557      H2582   1.080       .  S
C2557      O2571   1.236       .  S
C2557      O2572   1.271       .  A
O2558      C2581   1.272       .  A
O2559     Mg2822   2.186   1_655  S
C2561      C2771   1.460       .  S
C2561      O2574   1.267       .  A
C2561      O2566   1.262       .  A
C2562      O2589   1.256       .  A
Mg2563     O2570   2.157       .  S
Mg2563     O2565   2.332       .  S
Mg2563     O2592   2.324       .  S
O2564     Mg2812   2.243       .  S
O2565      C2569   1.273       .  A
O2567      C2586   1.266       .  A
O2568      C2588   1.265       .  A
O2571     Mg2812   2.152       .  S
O2571     Mg2590   2.146       .  S
Mg2573     O2589   2.241   1_455  S
H2575      C2580   1.081       .  S
O2576      C2579   1.231       .  S
O2576     Mg2796   2.146       .  S
O2576     Mg2584   2.112       .  S
H2577      C2579   1.081       .  S
Mg2584     O2817   2.240       .  S
C2586      O2591   1.269       .  A
O2587      C2588   1.264       .  A
Mg2590     O2809   2.275       .  S
C2593      C2635   1.605       .  S
C2593      C2716   1.585       .  S
C2594      C2668   1.624       .  S
C2594      C2728   1.600       .  S
C2595      C2611   1.618       .  S
C2595      C2623   1.597       .  S
C2595      C2680   1.635       .  S
C2595      C2695   1.588       .  S
C2596      C2597   1.416       .  A
C2596      C2601   1.407       .  A
C2597      C2598   1.410       .  A
C2597      H2602   1.085       .  S
C2598      C2599   1.416       .  A
C2599      C2600   1.436       .  A
C2600      C2601   1.422       .  A
C2600      H2603   1.079       .  S
C2601      C2604   1.443       .  S
C2604      N2606   1.157       .  T
C2605      N2607   1.152       .  T
C2608      C2609   1.402       .  A
C2608      C2613   1.416       .  A
C2609      C2610   1.428       .  A
C2609      H2614   1.084       .  S
C2610      C2611   1.446       .  A
C2610      C2617   1.439       .  S
C2611      C2612   1.425       .  A
C2612      C2613   1.404       .  A
C2612      H2615   1.077       .  S
C2613      C2616   1.450       .  S
C2616      N2618   1.158       .  T
C2617      N2619   1.157       .  T
C2620      C2621   1.396       .  A
C2620      C2625   1.414       .  A
C2621      C2622   1.414       .  A
C2621      H2626   1.086       .  S
C2622      C2623   1.442       .  A
C2622      C2629   1.432       .  S
C2623      C2624   1.421       .  A
C2624      C2625   1.403       .  A
C2624      H2627   1.085       .  S
C2625      C2628   1.442       .  S
C2628      N2630   1.155       .  T
C2629      N2631   1.154       .  T
C2632      C2633   1.406       .  A
C2632      C2637   1.429       .  A
C2633      C2634   1.418       .  A
C2633      H2638   1.084       .  S
C2634      C2635   1.446       .  A
C2634      C2641   1.444       .  S
C2635      C2636   1.404       .  A
C2636      C2637   1.403       .  A
C2637      C2640   1.438   1_655  S
C2640      N2642   1.157       .  T
C2641      N2643   1.158       .  T
C2644      C2645   1.403       .  A
C2644      C2649   1.450       .  A
C2645      C2646   1.400       .  A
C2646      C2647   1.432       .  A
C2646      C2653   1.431       .  S
C2647      C2648   1.396       .  A
C2648      C2649   1.412       .  A
C2648      H2651   1.085       .  S
C2649      C2652   1.447       .  S
C2652      N2654   1.158       .  T
C2656      C2657   1.412       .  A
C2656      C2661   1.441       .  A
C2657      C2658   1.407       .  A
C2657      H2662   1.073       .  S
C2658      C2659   1.423       .  A
C2658      C2665   1.447       .  S
C2659      C2660   1.403       .  A
C2660      C2661   1.420       .  A
C2660      H2663   1.084       .  S
C2661      C2664   1.442       .  S
C2664      N2666   1.157       .  T
C2665      N2667   1.157       .  T
C2668      C2669   1.428       .  A
C2668      C2673   1.460       .  A
C2669      C2670   1.423       .  A
C2669      H2674   1.084       .  S
C2670      C2671   1.405       .  A
C2671      C2672   1.379       .  A
C2672      C2673   1.406       .  A
C2672      H2675   1.087       .  S
C2673      C2676   1.437       .  S
C2676      N2678   1.155       .  T
C2677      C2919   1.438       .  S
C2677      N2679   1.157       .  T
C2680      C2681   1.420       .  A
C2680      C2685   1.450       .  A
C2681      C2682   1.420       .  A
C2681      H2686   1.074       .  S
C2682      C2683   1.421       .  A
C2682      C2689   1.442       .  S
C2683      C2684   1.401       .  A
C2684      C2685   1.419       .  A
C2684      H2687   1.084       .  S
C2685      C2688   1.445       .  S
C2688      N2690   1.158       .  T
C2689      N2691   1.157       .  T
C2692      C2693   1.387       .  A
C2692      C2697   1.413       .  A
C2693      C2694   1.410       .  A
C2693      H2698   1.085       .  S
C2694      C2695   1.449       .  A
C2694      C2701   1.439       .  S
C2695      C2696   1.413       .  A
C2696      C2697   1.405       .  A
C2696      H2699   1.083       .  S
C2697      C2700   1.439       .  S
C2700      N2702   1.156       .  T
C2701      N2703   1.157       .  T
C2704      C2705   1.398       .  A
C2704      C2709   1.441       .  A
C2705      C2706   1.395       .  A
C2706      C2707   1.415       .  A
C2706      C2713   1.446       .  S
C2707      C2708   1.397       .  A
C2708      C2709   1.415       .  A
C2708      H2711   1.085       .  S
C2709      C2712   1.441       .  S
C2712      N2714   1.157       .  T
C2713      N2964   1.158       .  T
C2716      C2717   1.416       .  A
C2716      C2721   1.420       .  A
C2717      C2718   1.395       .  A
C2717      H2722   1.077       .  S
C2718      C2719   1.416       .  A
C2718      C2725   1.444       .  S
C2719      C2720   1.413       .  A
C2720      C2721   1.433       .  A
C2720      H2723   1.081       .  S
C2724      N2726   1.156       .  T
C2725      N2727   1.156       .  T
C2728      C2729   1.416       .  A
C2728      C2733   1.436       .  A
C2729      C2730   1.415       .  A
C2729      H2734   1.079       .  S
C2730      C2731   1.424       .  A
C2730      C2737   1.445       .  S
C2731      C2732   1.408       .  A
C2732      C2733   1.421       .  A
C2732      H2984   1.084       .  S
C2733      C2736   1.441       .  S
C2737      N2739   1.157       .  T
C2740      C2741   1.402       .  A
C2740      C2745   1.435       .  A
C2740      C2968   1.520       .  S
C2741      H2746   1.085       .  S
C2742      C2743   1.400   1_554  A
C2743      C2744   1.413       .  A
C2743      H2747   1.083       .  S
C2744      C2980   1.532       .  S
C2749      C2750   1.398       .  A
C2749      C2941   1.499       .  S
C2750      C2751   1.384       .  A
C2750      H2755   1.086       .  S
C2752      C2753   1.392       .  A
C2752      H2756   1.086       .  S
C2753      C2754   1.428       .  A
C2753      C2956   1.496       .  S
C2754      H2757   1.082       .  S
C2758      C2763   1.414   1_556  A
C2758      C2932   1.538       .  S
C2759      C2760   1.427       .  A
C2759      H2764   1.082       .  S
C2760      C2761   1.397       .  A
C2760      C2920   1.501       .  S
C2761      H2765   1.086       .  S
C2762      C2763   1.404       .  A
C2763      H2766   1.059       .  S
C2767      C2772   1.394       .  A
C2767      C2908   1.523       .  S
C2768      C2769   1.445       .  A
C2768      H2773   1.082       .  S
C2769      C2770   1.403       .  A
C2769      C2896   1.525       .  S
C2770      C2771   1.388       .  A
C2770      H2774   1.075       .  S
C2772      H2775   1.064       .  S
C2776      C2777   1.389       .  A
C2776      C2781   1.431       .  A
C2776      C2869   1.500       .  S
C2777      C2778   1.378       .  A
C2777      H2782   1.085       .  S
C2778      C2811   1.464       .  S
C2779      C2780   1.412       .  A
C2779      H2783   1.073       .  S
C2780      C2881   1.537       .  S
C2785      C2786   1.445       .  A
C2785      C2790   1.402       .  A
C2785      C2857   1.525       .  S
C2787      C2788   1.396       .  A
C2787      C2845   1.526       .  S
C2788      H2792   1.084       .  S
C2789      C2790   1.385   1_554  A
C2789      C2835   1.465       .  S
C2790      H2793   1.084       .  S
O2794      C2829   1.236       .  S
C2795      H2834   1.081   1_455  S
C2795      O2808   1.264   1_456  A
Mg2796     O2836   2.265       .  S
Mg2796     O2807   2.325       .  S
O2798      C2829   1.273       .  A
O2798     Mg2822   2.326   1_655  S
C2799      O2801   1.261       .  A
C2799      O2813   1.268       .  A
O2800     Mg2802   2.276   1_556  S
Mg2802     O2816   2.220       .  S
Mg2802     O2808   2.242       .  S
C2803      O2841   1.271       .  A
C2803      O2809   1.268       .  A
O2804      C2811   1.259       .  A
C2806      H2831   1.080       .  S
C2806      O2820   1.236   1_556  S
C2806      O2821   1.271       .  A
O2807      C2830   1.272       .  A
C2810      O2823   1.267       .  A
C2810      O2815   1.262       .  A
C2811      O2838   1.256       .  A
Mg2812     O2819   2.157       .  S
Mg2812     O2814   2.332       .  S
Mg2812     O2841   2.324       .  S
O2814      C2818   1.273       .  A
O2816      C2835   1.266       .  A
O2817      C2837   1.265       .  A
O2820     Mg2839   2.146       .  S
Mg2822     O2838   2.241   1_455  S
H2824      C2829   1.081       .  S
O2825      C2828   1.231   1_554  S
O2825     Mg2833   2.112       .  S
H2826      C2828   1.081       .  S
C2835      O2840   1.269       .  A
O2836      C2837   1.264       .  A
C2842      C2884   1.605       .  S
C2842      C2965   1.585       .  S
C2843      C2917   1.624       .  S
C2843      C2977   1.600       .  S
C2844      C2860   1.618       .  S
C2844      C2872   1.597       .  S
C2844      C2929   1.635       .  S
C2844      C2944   1.588       .  S
C2845      C2846   1.416       .  A
C2845      C2850   1.407       .  A
C2846      C2847   1.410       .  A
C2846      H2851   1.085       .  S
C2847      C2848   1.416       .  A
C2848      C2849   1.436       .  A
C2849      C2850   1.422       .  A
C2849      H2852   1.079       .  S
C2850      C2853   1.443       .  S
C2853      N2855   1.157       .  T
C2854      N2856   1.152       .  T
C2857      C2858   1.402       .  A
C2857      C2862   1.416       .  A
C2858      C2859   1.428       .  A
C2858      H2863   1.084       .  S
C2859      C2860   1.446       .  A
C2859      C2866   1.439       .  S
C2860      C2861   1.425       .  A
C2861      C2862   1.404       .  A
C2861      H2864   1.077       .  S
C2862      C2865   1.450       .  S
C2865      N2867   1.158       .  T
C2866      N2868   1.157       .  T
C2869      C2870   1.396       .  A
C2869      C2874   1.414       .  A
C2870      C2871   1.414       .  A
C2870      H2875   1.086       .  S
C2871      C2872   1.442       .  A
C2871      C2878   1.432       .  S
C2872      C2873   1.421       .  A
C2873      C2874   1.403       .  A
C2873      H2876   1.085       .  S
C2874      C2877   1.442       .  S
C2877      N2879   1.155       .  T
C2878      N2880   1.154       .  T
C2881      C2882   1.406       .  A
C2881      C2886   1.429       .  A
C2882      C2883   1.418       .  A
C2882      H2887   1.084       .  S
C2883      C2884   1.446       .  A
C2883      C2890   1.444       .  S
C2884      C2885   1.404       .  A
C2885      C2886   1.403       .  A
C2886      C2889   1.438   1_655  S
C2889      N2891   1.157       .  T
C2890      N2892   1.158       .  T
C2893      C2894   1.403       .  A
C2893      C2898   1.450       .  A
C2894      C2895   1.400       .  A
C2895      C2896   1.432       .  A
C2895      C2902   1.431       .  S
C2896      C2897   1.396       .  A
C2897      C2898   1.412       .  A
C2897      H2900   1.085       .  S
C2898      C2901   1.447       .  S
C2901      N2903   1.158       .  T
C2905      C2906   1.412       .  A
C2905      C2910   1.441       .  A
C2906      C2907   1.407       .  A
C2906      H2911   1.073       .  S
C2907      C2908   1.423       .  A
C2907      C2914   1.447       .  S
C2908      C2909   1.403       .  A
C2909      C2910   1.420       .  A
C2909      H2912   1.084       .  S
C2910      C2913   1.442       .  S
C2913      N2915   1.157       .  T
C2914      N2916   1.157       .  T
C2917      C2918   1.428       .  A
C2917      C2922   1.460       .  A
C2918      C2919   1.423       .  A
C2918      H2923   1.084       .  S
C2919      C2920   1.405       .  A
C2920      C2921   1.379       .  A
C2921      C2922   1.406       .  A
C2921      H2924   1.087       .  S
C2922      C2925   1.437       .  S
C2925      N2927   1.155       .  T
C2926      N2928   1.157       .  T
C2929      C2930   1.420       .  A
C2929      C2934   1.450       .  A
C2930      C2931   1.420       .  A
C2930      H2935   1.074       .  S
C2931      C2932   1.421       .  A
C2931      C2938   1.442       .  S
C2932      C2933   1.401       .  A
C2933      C2934   1.419       .  A
C2933      H2936   1.084       .  S
C2934      C2937   1.445       .  S
C2937      N2939   1.158       .  T
C2938      N2940   1.157       .  T
C2941      C2942   1.387       .  A
C2941      C2946   1.413       .  A
C2942      C2943   1.410       .  A
C2942      H2947   1.085       .  S
C2943      C2944   1.449       .  A
C2943      C2950   1.439       .  S
C2944      C2945   1.413       .  A
C2945      C2946   1.405       .  A
C2945      H2948   1.083       .  S
C2946      C2949   1.439       .  S
C2949      N2951   1.156       .  T
C2950      N2952   1.157       .  T
C2953      C2954   1.398       .  A
C2953      C2958   1.441       .  A
C2954      C2955   1.395       .  A
C2955      C2956   1.415       .  A
C2955      C2962   1.446       .  S
C2956      C2957   1.397       .  A
C2957      C2958   1.415       .  A
C2957      H2960   1.085       .  S
C2958      C2961   1.441       .  S
C2961      N2963   1.157       .  T
C2965      C2966   1.416       .  A
C2965      C2970   1.420       .  A
C2966      C2967   1.395       .  A
C2966      H2971   1.077       .  S
C2967      C2968   1.416       .  A
C2967      C2974   1.444       .  S
C2968      C2969   1.413       .  A
C2969      C2970   1.433       .  A
C2969      H2972   1.081       .  S
C2973      N2975   1.156       .  T
C2974      N2976   1.156       .  T
C2977      C2978   1.416       .  A
C2977      C2982   1.436       .  A
C2978      C2979   1.415       .  A
C2978      H2983   1.079       .  S
C2979      C2980   1.424       .  A
C2979      C2986   1.445       .  S
C2980      C2981   1.408       .  A
C2981      C2982   1.421       .  A
C2982      C2985   1.441       .  S
C2986      N2988   1.157       .  T
