geometry optimzed in LAMMPS
_audit_creation_date              2020-11-30 
_audit_creation_method            'lammps2cif' 
_symmetry_space_group_name_H-M    'P1' 
_symmetry_Int_Tables_number       1 
_symmetry_cell_setting            triclinic 
loop_ 
_symmetry_equiv_pos_as_xyz 
  x,y,z 
_cell_length_a                    51.78081956 
_cell_length_b                    51.700020601594396 
_cell_length_c                    30.33164248704794 
_cell_angle_alpha                 89.9454463629339 
_cell_angle_beta                  90.04904004395786 
_cell_angle_gamma                 120.18122362129552 
loop_ 
_atom_site_label 
_atom_site_type_symbol 
_atom_site_fract_x 
_atom_site_fract_y 
_atom_site_fract_z 
_atom_site_charge 
C1          C  0.21834077  0.22697469  0.29073835     0.03100
C2          C  0.24456644  0.24913755  0.31080356    -0.13100
C3          C  0.26737515  0.27233253  0.28585259     0.00600
C4          C  0.26346020  0.27311249  0.24007447    -0.11600
C5          C  0.23736669  0.25080654  0.21924883     0.03100
C6          C  0.21474387  0.22800496  0.24505522    -0.11000
H7          H  0.24705247  0.24830695  0.34617202     0.08700
H8          H  0.28130917  0.29027826  0.22038565     0.06200
H9          H  0.19455988  0.21069424  0.22954595     0.06000
C10         C  0.21547376  0.22423494  0.81877363     0.03100
C11         C  0.24099590  0.24612600  0.79703436    -0.13100
C12         C  0.26444785  0.26982767  0.82042449     0.00600
C13         C  0.26159721  0.27126559  0.86650328    -0.11600
C14         C  0.23595265  0.24926667  0.88879536     0.03100
C15         C  0.21285525  0.22605060  0.86437702    -0.11000
H16         H  0.24228709  0.24463358  0.76156545     0.08700
H17         H  0.27980858  0.28871480  0.88528693     0.06200
H18         H  0.19301355  0.20897417  0.88091452     0.06000
C19         C  0.24225540  0.46493690  0.28548733     0.03100
C20         C  0.23900691  0.46041520  0.23976799    -0.13100
C21         C  0.21496566  0.46011288  0.21750167     0.00600
C22         C  0.19342192  0.46297368  0.24203887    -0.11600
C23         C  0.19606014  0.46696159  0.28807849     0.03100
C24         C  0.22108357  0.46863337  0.30915193    -0.11000
H25         H  0.25584966  0.45838279  0.22143447     0.08700
H26         H  0.17423786  0.46139714  0.22520010     0.06200
H27         H  0.22423723  0.47274340  0.34430015     0.06000
C28         C  0.23475722  0.45463654  0.81639478     0.03100
C29         C  0.23405749  0.45306097  0.86268683    -0.13100
C30         C  0.21143182  0.45452711  0.88654537     0.00600
C31         C  0.18923344  0.45699997  0.86325153    -0.11600
C32         C  0.18967000  0.45856658  0.81700717     0.03100
C33         C  0.21248654  0.45718805  0.79393266    -0.11000
H34         H  0.25180500  0.45202123  0.88004510     0.08700
H35         H  0.17189809  0.45835876  0.88125161     0.06200
H36         H  0.21323006  0.45844725  0.75824820     0.06000
C37         C  0.51621958  0.25194185  0.29145489     0.03100
C38         C  0.51297848  0.22666893  0.31344248    -0.13100
C39         C  0.51218135  0.20278888  0.29011321     0.00600
C40         C  0.51505135  0.20477429  0.24392406    -0.11600
C41         C  0.51880701  0.23026924  0.22111795     0.03100
C42         C  0.52001415  0.25407019  0.24561513    -0.11000
H43         H  0.51056566  0.22553469  0.34898672     0.08700
H44         H  0.51273495  0.18574343  0.22566310     0.06200
H45         H  0.52281065  0.27389352  0.22910946     0.06000
C46         C  0.50314636  0.24625824  0.81999654     0.03100
C47         C  0.50893512  0.24924192  0.86538061    -0.13100
C48         C  0.50867609  0.22587191  0.88980301     0.00600
C49         C  0.50369756  0.19982715  0.86724940    -0.11600
C50         C  0.49897243  0.19698667  0.82128593     0.03100
C51         C  0.49865576  0.22044240  0.79822653    -0.11000
H52         H  0.51299918  0.26960069  0.88160349     0.08700
H53         H  0.50243947  0.18127657  0.88562004     0.06200
H54         H  0.49533374  0.21901388  0.76285882     0.06000
O55         O  0.41626918  0.99634781  0.50418694    -0.88200
C56         C  0.06901727  0.06527548  0.61935262     1.11800
O57         O  0.45400648  0.47469155  0.55290336    -1.36000
O58         O  0.04910976  0.06967040  0.50555076    -0.89700
O59         O  0.39392034  0.44645130  0.50207708    -0.90400
O60         O  0.45707657  0.44609859  0.46007323    -0.79200
O61         O  0.48249815  0.03372930  0.51232211    -1.01300
C62         C  0.04235015  0.47942348  0.47408413     1.21900
O63         O  0.48772152  0.44636159  0.55359288    -1.36200
Mn64       Mn  0.48542527  0.47640745  0.60146415     1.82100
O65         O  0.01930673  0.47927142  0.46091570    -0.78300
O66         O  0.07611086  0.04684266  0.50559292    -0.87700
C67         C  0.04065225  0.47957131  0.63551724     1.12900
C68         C  0.07056051  0.06668544  0.49107971     1.07700
O69         O  0.45443287  0.44443602  0.64562618    -0.79200
O70         O  0.01616518  0.00880445  0.55434833    -1.32900
O71         O  0.42868257  0.41537442  0.59365935    -0.98400
C72         C  0.49214612  0.39272468  0.48959109     1.06400
Mn73       Mn  0.05931707  0.01370797  0.55473345     1.48600
O74         O  0.46643932  0.38662516  0.50320805    -0.87600
Mn75       Mn  0.41287956  0.43299899  0.55177235     1.49600
O76         O  0.41551917  0.49557548  0.60259721    -0.91500
C77         C  0.48377037  0.02974915  0.47292240     1.19600
C78         C  0.39573446  0.46984069  0.61646312     1.11600
Mn79       Mn  0.48678527  0.47719997  0.50579524     1.81000
O80         O  0.04570296  0.48024331  0.59618512    -0.96700
Mn81       Mn  0.44875796  0.01284731  0.55352638     1.49300
C82         C  0.39703934  0.47112922  0.48834800     1.08100
Mn83       Mn  0.02886680  0.44652862  0.55490580     1.49900
C84         C  0.49055098  0.39206990  0.61773774     1.11100
O85         O  0.42973341  0.41616474  0.51030174    -1.02500
O86         O  0.07520729  0.04618965  0.60393766    -0.92100
C87         C  0.43476402  0.42176885  0.47106355     1.22300
O88         O  0.04628541  0.48011716  0.51370100    -1.02800
O89         O  0.04791556  0.06865497  0.60448346    -0.90200
O90         O  0.01516548  0.41391128  0.60430886    -0.89800
O91         O  0.39282517  0.44563008  0.60096255    -0.89900
Mn92       Mn  0.01590414  0.04989516  0.55433566     1.47900
O93         O  0.01647921  0.47745781  0.64720547    -0.78300
C94         C  0.43246300  0.42020131  0.63323858     1.15400
O95         O  0.48609124  0.00782201  0.46107090    -0.77100
O96         O  0.48403621  0.00686771  0.64677998    -0.76700
Mn97       Mn  0.44946562  0.40270711  0.55229711     1.51100
O98         O  0.01623761  0.41395599  0.50553222    -0.89000
O99         O  0.48195239  0.03335362  0.59522874    -0.96600
O100        O  0.46536753  0.38591858  0.60170754    -0.91600
C101        C  0.48244757  0.02924443  0.63470471     1.13200
C102        C  0.01994482  0.09219486  0.76926127    -0.17900
C103        C  0.02264215  0.11600815  0.79487910    -0.20000
C104        C  0.50682595  0.13059494  0.78367221     0.20600
C105        C  0.48805964  0.12097391  0.74628608    -0.03000
C106        C  0.48566100  0.09722435  0.72007639    -0.06000
C107        C  0.50160184  0.08265542  0.73168117     0.20900
C108        C  0.46766172  0.08839248  0.68188977     0.19000
C109        C  0.45169044  0.10278996  0.67075971    -0.17500
C110        C  0.45366884  0.12590986  0.69708783    -0.19700
C111        C  0.47194679  0.13531061  0.73468880     0.20500
C112        C  0.47471105  0.15911169  0.76039367    -0.32700
C113        C  0.49416160  0.16970691  0.79695505     0.01200
C114        C  0.50987758  0.15495395  0.80863407    -0.24100
C115        C  0.99937251  0.05929251  0.70497898    -0.28700
C116        C  0.48213624  0.05103968  0.66616277     0.06900
C117        C  0.46629800  0.06566598  0.65504263    -0.27300
H118        H  0.03255583  0.08148955  0.77854005     0.11600
H119        H  0.03724092  0.12311962  0.82335748     0.12700
H120        H  0.43773372  0.09622735  0.64159445     0.11800
H121        H  0.44118063  0.13672691  0.68767442     0.11100
H122        H  0.46178469  0.16955874  0.75154368     0.16500
H123        H  0.02514006  0.16291939  0.83635755     0.12400
H124        H  0.01203534  0.04846146  0.71329118     0.15200
H125        H  0.45302263  0.05944142  0.62515198     0.15000
C126        C  0.54557935  0.36897866  0.73019903    -0.17900
C127        C  0.54718424  0.34880058  0.75932104    -0.20000
C128        C  0.52262742  0.31983778  0.76473680     0.20600
C129        C  0.49595414  0.31142115  0.74129923    -0.03000
C130        C  0.49413772  0.33203205  0.71267983    -0.06000
C131        C  0.51920045  0.36083149  0.70671227     0.20900
C132        C  0.46750700  0.32351955  0.68916768     0.19000
C133        C  0.44290984  0.29460669  0.69461438    -0.17500
C134        C  0.44485152  0.27405742  0.72241629    -0.19700
C135        C  0.47131787  0.28216502  0.74558485     0.20500
C136        C  0.47380853  0.26131953  0.77213156    -0.32700
C137        C  0.50041070  0.26938290  0.79500689     0.01200
C138        C  0.52453078  0.29884566  0.79203683    -0.24100
C139        C  0.51768624  0.38065542  0.67652993    -0.28700
C140        C  0.49131813  0.37220159  0.65248024     0.06900
C141        C  0.46615432  0.34374473  0.65972784    -0.27300
H142        H  0.56515143  0.39085184  0.72556722     0.11600
H143        H  0.56786091  0.35563817  0.77686873     0.12700
H144        H  0.42231038  0.28771649  0.67678820     0.11800
H145        H  0.42572127  0.25170324  0.72547546     0.11100
H146        H  0.45515278  0.23861954  0.77471641     0.16500
H147        H  0.54508248  0.30499150  0.80955281     0.12400
H148        H  0.53722546  0.40249146  0.67125428     0.15200
H149        H  0.44577352  0.33686328  0.64126335     0.15000
C150        C  0.45695609  0.10556373  0.43522272    -0.17900
C151        C  0.46121715  0.12997099  0.40991953    -0.20000
C152        C  0.48079730  0.13956623  0.37383524     0.20600
C153        C  0.49577602  0.12406862  0.36242764    -0.03000
C154        C  0.49119572  0.09915546  0.38769599    -0.06000
C155        C  0.47204439  0.09023453  0.42463007     0.20900
C156        C  0.00624376  0.08362003  0.37664405     0.19000
C157        C  0.02551732  0.09304359  0.34012338    -0.17500
C158        C  0.03022704  0.11791683  0.31523133    -0.19700
C159        C  0.01562345  0.13373022  0.32628135     0.20500
C160        C  0.02080729  0.15926212  0.30235506    -0.32700
C161        C  0.50622785  0.17511116  0.31405126     0.01200
C162        C  0.48585502  0.16463346  0.34937843    -0.24100
C163        C  0.46892612  0.06668789  0.45113200    -0.28700
C164        C  0.48438489  0.05160595  0.44108455     0.06900
C165        C  0.00241210  0.05958926  0.40315549    -0.27300
H166        H  0.44209442  0.09886773  0.46337265     0.11600
H167        H  0.44951215  0.14163495  0.41898432     0.12700
H168        H  0.03737876  0.08149872  0.33126504     0.11800
H169        H  0.04555811  0.12498845  0.28763952     0.11100
H170        H  0.03661438  0.16713604  0.27530925     0.16500
H171        H  0.47380166  0.17602707  0.35797368     0.11300
H172        H  0.45490159  0.06043835  0.48025055     0.15200
H173        H  0.01462314  0.04816546  0.39565340     0.15000
C174        C  0.45298353  0.27630712  0.38335261    -0.17900
C175        C  0.44926007  0.29616923  0.41024086    -0.20000
C176        C  0.47300640  0.32540273  0.41705284     0.20600
C177        C  0.50052993  0.33496481  0.39550490    -0.03000
C178        C  0.50418430  0.31501149  0.36789138    -0.06000
C179        C  0.48042222  0.28539925  0.36248817     0.20900
C180        C  0.53178357  0.32447067  0.34653646     0.19000
C181        C  0.05530133  0.35393539  0.35260656    -0.17500
C182        C  0.05179299  0.37358823  0.38040059    -0.19700
C183        C  0.52462125  0.36419925  0.40238905     0.20500
C184        C  0.52138531  0.38324669  0.43202843    -0.32700
C185        C  0.49430580  0.37364745  0.45472125     0.01200
C186        C  0.46995956  0.34489668  0.44604421    -0.24100
C187        C  0.48467581  0.26523780  0.33700706    -0.28700
C188        C  0.51217792  0.27431724  0.31623360     0.06900
C189        C  0.53549653  0.30410211  0.32032378    -0.27300
H190        H  0.43446699  0.25368804  0.37926977     0.11600
H191        H  0.42796193  0.28848441  0.42637125     0.12700
H192        H  0.07659947  0.36164648  0.33643443     0.11800
H193        H  0.07046899  0.39603934  0.38511048     0.11100
H194        H  0.54017341  0.40535438  0.43803571     0.16500
H195        H  0.44899176  0.33719646  0.46322401     0.12400
H196        H  0.46663128  0.24229980  0.33345592     0.15200
H197        H  0.05669770  0.31106528  0.30425194     0.15000
C198        C  0.04152097  0.20157513  0.03032574    -0.17900
C199        C  0.04284508  0.20208967  0.07647132    -0.20000
C200        C  0.03084157  0.21662068  0.10092569     0.20600
C201        C  0.51749928  0.23087300  0.07857381    -0.03000
C202        C  0.51616777  0.23035851  0.03200115    -0.06000
C203        C  0.02814401  0.21555722  0.00776232     0.20900
C204        C  0.50252414  0.24434843  0.00978256     0.19000
C205        C  0.49072428  0.25907964  0.03416292    -0.17500
C206        C  0.49200864  0.25955668  0.08022199    -0.19700
C207        C  0.50516508  0.24536076  0.10271602     0.20500
C208        C  0.50581181  0.24511637  0.14892113    -0.32700
C209        C  0.51913928  0.23105571  0.17179365     0.01200
C210        C  0.03180177  0.21700733  0.14726936    -0.24100
C211        C  0.02628321  0.21474133  0.96147530    -0.28700
C212        C  0.51211464  0.22809497  0.93890971     0.06900
C213        C  0.50042178  0.24296553  0.96364025    -0.27300
H214        H  0.05081236  0.19006824  0.01228148     0.11600
H215        H  0.05314244  0.19098039  0.09304839     0.12700
H216        H  0.48027176  0.27004459  0.01760870     0.11800
H217        H  0.48253415  0.27089129  0.09827561     0.11100
H218        H  0.49519642  0.25532101  0.16696075     0.16500
H219        H  0.04252359  0.20643206  0.16414781     0.12400
H220        H  0.03591559  0.20369491  0.94309358     0.15200
H221        H  0.48886317  0.25282364  0.94718935     0.15000
C222        C  0.30967976  0.40995240  0.71612650    -0.17900
C223        C  0.28692882  0.40768913  0.74375893    -0.20000
C224        C  0.28511813  0.43316976  0.75441398     0.20600
C225        C  0.30668451  0.46127438  0.73722415    -0.03000
C226        C  0.32969566  0.46356428  0.70942509    -0.06000
C227        C  0.33105692  0.43775021  0.69853166     0.20900
C228        C  0.35105492  0.49163862  0.69203322     0.19000
C229        C  0.34938998  0.01715624  0.70283167    -0.17500
C230        C  0.32654820  0.01487626  0.73009158    -0.19700
C231        C  0.30504085  0.48706236  0.74728709     0.20500
C232        C  0.28174156  0.48456811  0.77392401    -0.32700
C233        C  0.26019002  0.45672883  0.79106966     0.01200
C234        C  0.26201945  0.43109252  0.78146724    -0.24100
C235        C  0.35332391  0.44007474  0.66948333    -0.28700
C236        C  0.37429174  0.46791195  0.65096165     0.06900
C237        C  0.37328267  0.49365867  0.66332756    -0.27300
H238        H  0.31042516  0.38990458  0.70825111     0.11600
H239        H  0.27061731  0.38592888  0.75659701     0.12700
H240        H  0.36560397  0.03888670  0.68978156     0.11800
H241        H  0.32561546  0.03487756  0.73754948     0.11100
H242        H  0.28011436  0.00424670  0.78109329     0.16500
H243        H  0.24513999  0.40955624  0.79428568     0.12400
H244        H  0.35388674  0.42006928  0.66058345     0.15200
H245        H  0.38922852  0.51523976  0.64950232     0.15000
C246        C  0.16527623  0.50713739  0.69683865    -0.17900
C247        C  0.14446419  0.51047105  0.67187811    -0.20000
C248        C  0.11406905  0.49452602  0.68299043     0.20600
C249        C  0.10453608  0.47557765  0.72020611    -0.03000
C250        C  0.12553113  0.47194731  0.74512343    -0.06000
C251        C  0.15597898  0.48764451  0.73308756     0.20900
C252        C  0.11601606  0.45227744  0.78152674     0.19000
C253        C  0.08565712  0.43697597  0.79327518    -0.17500
C254        C  0.06483719  0.44074251  0.76872546    -0.19700
C255        C  0.07397799  0.45973734  0.73185625     0.20500
C256        C  0.05308950  0.46248351  0.70557672    -0.32700
C257        C  0.06245063  0.48020837  0.66731250     0.01200
C258        C  0.09296511  0.49653046  0.65670823    -0.24100
C259        C  0.17661381  0.48336571  0.75712316    -0.28700
C260        C  0.16734737  0.46326950  0.79279682     0.06900
C261        C  0.13697429  0.44799718  0.80509185    -0.27300
H262        H  0.18860714  0.51945590  0.68735843     0.11600
H263        H  0.15209362  0.52524810  0.64354065     0.12700
H264        H  0.07794039  0.42178004  0.82110997     0.11800
H265        H  0.04147894  0.42830192  0.77804471     0.11100
H266        H  0.02948840  0.44962714  0.71346694     0.16500
H267        H  0.10020108  0.51030108  0.62725700     0.12400
H268        H  0.20002664  0.49580348  0.74804661     0.15200
H269        H  0.12956904  0.43237817  0.83242773     0.15000
C270        C  0.33072486  0.52119268  0.37970100    -0.17900
C271        C  0.35241883  0.52203282  0.40804275    -0.20000
C272        C  0.35449666  0.49630737  0.41500516     0.20600
C273        C  0.33495985  0.46960402  0.39254416    -0.03000
C274        C  0.31324114  0.46884295  0.36349712    -0.06000
C275        C  0.31089416  0.49468614  0.35761146     0.20900
C276        C  0.29342598  0.44208882  0.34124285     0.19000
C277        C  0.29575793  0.41644746  0.34800075    -0.17500
C278        C  0.31707715  0.41712377  0.37721063    -0.19700
C279        C  0.33666282  0.44352647  0.39986297     0.20500
C280        C  0.35744961  0.44418678  0.43039302    -0.32700
C281        C  0.37670375  0.47068421  0.45344855     0.01200
C282        C  0.37534927  0.49674182  0.44484522    -0.24100
C283        C  0.28824975  0.49337157  0.33071251    -0.28700
C284        C  0.26808997  0.46671422  0.30918614     0.06900
C285        C  0.27112111  0.44129168  0.31374520    -0.27300
H286        H  0.32924830  0.54122755  0.37542286     0.11600
H287        H  0.36729245  0.54269924  0.42504145     0.12700
H288        H  0.28075430  0.39571282  0.33125348     0.11800
H289        H  0.31802077  0.39687796  0.38245393     0.11100
H290        H  0.35830940  0.42398461  0.43664318     0.16500
H291        H  0.38992913  0.51727122  0.46240813     0.12400
H292        H  0.28581737  0.51292274  0.32715723     0.15200
H293        H  0.25534338  0.42065027  0.29740783     0.15000
C294        C  0.09711198  0.49842794  0.33162908    -0.17900
C295        C  0.11914891  0.49727771  0.30620727    -0.20000
C296        C  0.13489711  0.48380038  0.32289288     0.20600
C297        C  0.12836793  0.47144531  0.36567069    -0.03000
C298        C  0.10652484  0.47305763  0.39156542    -0.06000
C299        C  0.09063139  0.48646631  0.37445477     0.20900
C300        C  0.10081469  0.46146255  0.43475792     0.19000
C301        C  0.11616520  0.44762216  0.45135229    -0.17500
C302        C  0.13733162  0.44553726  0.42547330    -0.19700
C303        C  0.14375614  0.45757607  0.38277099     0.20500
C304        C  0.16534973  0.45596930  0.35702807    -0.32700
C305        C  0.17255310  0.46863814  0.31451379     0.01200
C306        C  0.15710179  0.48255582  0.29771319    -0.24100
C307        C  0.06887897  0.48791986  0.40070536    -0.28700
C308        C  0.06374046  0.47702637  0.44425170     0.06900
C309        C  0.07999136  0.46402313  0.46087002    -0.27300
H310        H  0.08529343  0.50891112  0.31788058     0.11600
H311        H  0.12382618  0.50687811  0.27342062     0.12700
H312        H  0.11180287  0.43841138  0.48440083     0.11800
H313        H  0.14890306  0.43474932  0.43904572     0.11100
H314        H  0.17634948  0.44448692  0.37014611     0.16500
H315        H  0.16254086  0.49272801  0.26530497     0.12400
H316        H  0.05664524  0.49821609  0.38782276     0.15200
H317        H  0.07611917  0.45542681  0.49430524     0.15000
C318        C  0.19868275  0.49491200  0.02784604    -0.17900
C319        C  0.19877192  0.49538969  0.07397738    -0.20000
C320        C  0.20513294  0.47606620  0.09808286     0.20600
C321        C  0.21123201  0.45588429  0.07547837    -0.03000
C322        C  0.21109526  0.45536913  0.02885751    -0.06000
C323        C  0.20490577  0.47506558  0.00498989     0.20900
C324        C  0.21738903  0.43533338  0.00618577     0.19000
C325        C  0.22340190  0.41577673  0.03034560    -0.17500
C326        C  0.22360647  0.41633334  0.07651433    -0.19700
C327        C  0.21776442  0.43643441  0.09940623     0.20500
C328        C  0.21862441  0.43762990  0.14572937    -0.32700
C329        C  0.21287424  0.45792187  0.16852667     0.01200
C330        C  0.20588169  0.47686531  0.14434589    -0.24100
C331        C  0.20518767  0.47469312  0.95871661    -0.28700
C332        C  0.21150194  0.45482958  0.93571451     0.06900
C333        C  0.21761599  0.43523693  0.95982040    -0.27300
H334        H  0.19383956  0.51015768  0.01002792     0.11600
H335        H  0.19402881  0.51101429  0.09081285     0.12700
H336        H  0.22814193  0.40015031  0.01351599     0.11800
H337        H  0.22853383  0.40114885  0.09432884     0.11100
H338        H  0.22370633  0.42273588  0.16408176     0.16500
H339        H  0.20175984  0.49280428  0.16156208     0.12400
H340        H  0.20087821  0.49020173  0.94056125     0.15200
H341        H  0.22219038  0.41966058  0.94246250     0.15000
C342        C  0.37022407  0.39563587  0.76815785    -0.17900
C343        C  0.34642311  0.37462614  0.79402589    -0.20000
C344        C  0.33151137  0.34408156  0.78304055     0.20600
C345        C  0.34091489  0.33468419  0.74575071    -0.03000
C346        C  0.36468666  0.35590111  0.71937026    -0.06000
C347        C  0.37945881  0.38655864  0.73060848     0.20900
C348        C  0.37328103  0.34644531  0.68129037     0.19000
C349        C  0.35868553  0.31594501  0.67049913    -0.17500
C350        C  0.33549796  0.29494449  0.69693374    -0.19700
C351        C  0.32628661  0.30411180  0.73434532     0.20500
C352        C  0.30233886  0.28321693  0.75998986    -0.32700
C353        C  0.29187363  0.29230711  0.79632822     0.01200
C354        C  0.30700495  0.32287219  0.80803080    -0.24100
C355        C  0.40268836  0.40755133  0.70352642    -0.28700
C356        C  0.41061550  0.39824503  0.66476521     0.06900
C357        C  0.39592294  0.36765464  0.65413473    -0.27300
H358        H  0.38116317  0.41906846  0.77721934     0.11600
H359        H  0.33954031  0.38231123  0.82247827     0.12700
H360        H  0.36509036  0.30834300  0.64143851     0.11800
H361        H  0.32445623  0.27153137  0.68772349     0.11100
H362        H  0.29164576  0.25974458  0.75124272     0.16500
H363        H  0.29920467  0.33031268  0.83571677     0.12400
H364        H  0.41369932  0.43117189  0.71153484     0.15200
H365        H  0.40200265  0.36038586  0.62436741     0.15000
C366        C  0.18413874  0.13338613  0.73032919    -0.17900
C367        C  0.16313127  0.11038672  0.70360469    -0.20000
C368        C  0.13533857  0.10795435  0.69520716     0.20600
C369        C  0.12817973  0.12820448  0.71514820    -0.03000
C370        C  0.14923056  0.15118204  0.74259449    -0.06000
C371        C  0.17755445  0.15409964  0.74946639     0.20900
C372        C  0.14223859  0.17168815  0.76219110     0.19000
C373        C  0.11411815  0.16872554  0.75465924    -0.17500
C374        C  0.09341567  0.14619732  0.72692670    -0.19700
C375        C  0.10038043  0.12608938  0.70658846     0.20500
C376        C  0.08052833  0.10464251  0.67660871    -0.32700
C377        C  0.08807281  0.08521088  0.65515284     0.01200
C378        C  0.11509477  0.08636103  0.66587249    -0.24100
C379        C  0.19895910  0.17798996  0.77469420    -0.28700
C380        C  0.19222641  0.19861581  0.79379297     0.06900
C381        C  0.16373211  0.19512896  0.78816602    -0.27300
H382        H  0.20569692  0.13520155  0.73558341     0.11600
H383        H  0.16888417  0.09491157  0.68867793     0.12700
H384        H  0.10834933  0.18419422  0.76953911     0.11800
H385        H  0.07212938  0.14481284  0.72080753     0.11100
H386        H  0.05962673  0.10373107  0.66899230     0.16500
H387        H  0.12108619  0.07137322  0.64984204     0.12400
H388        H  0.22095924  0.18070737  0.77942721     0.15200
H389        H  0.15868825  0.21116021  0.80298102     0.15000
C390        C  0.34412160  0.29693649  0.39992235    -0.17900
C391        C  0.36747650  0.31787157  0.42610367    -0.20000
C392        C  0.37999766  0.34856278  0.41792066     0.20600
C393        C  0.36965732  0.35833487  0.38210044    -0.03000
C394        C  0.34577447  0.33716677  0.35597786    -0.06000
C395        C  0.33276410  0.30638032  0.36540393     0.20900
C396        C  0.33435659  0.34680183  0.32137925     0.19000
C397        C  0.34769636  0.37755503  0.31231909    -0.17500
C398        C  0.37161373  0.39856829  0.33797904    -0.19700
C399        C  0.38249003  0.38922992  0.37334776     0.20500
C400        C  0.40518974  0.41012739  0.40110100    -0.32700
C401        C  0.41431559  0.40035215  0.43812450     0.01200
C402        C  0.40196953  0.36961591  0.44589249    -0.24100
C403        C  0.30805271  0.28553632  0.34107194    -0.28700
C404        C  0.29552357  0.29485758  0.30789387     0.06900
C405        C  0.30928019  0.32556043  0.29746166    -0.27300
H406        H  0.33445184  0.27334899  0.40735496     0.11600
H407        H  0.37540614  0.31007167  0.45324430     0.12700
H408        H  0.33928756  0.38539932  0.28588399     0.11800
H409        H  0.38111965  0.42217734  0.33082193     0.11100
H410        H  0.41456819  0.43390132  0.39536637     0.16500
H411        H  0.40908475  0.36209226  0.47435869     0.12400
H412        H  0.29816822  0.26192205  0.34856045     0.15200
H413        H  0.29983484  0.33299156  0.27192491     0.15000
C414        C  0.11693896  0.17133085  0.35592514    -0.17900
C415        C  0.09630832  0.14895991  0.38404567    -0.20000
C416        C  0.10360346  0.12949152  0.40583416     0.20600
C417        C  0.13200527  0.13261267  0.39912269    -0.03000
C418        C  0.15305099  0.15556002  0.37140074    -0.06000
C419        C  0.14544489  0.17496667  0.34956807     0.20900
C420        C  0.18182052  0.15930291  0.36601143     0.19000
C421        C  0.18905932  0.13972469  0.38748830    -0.17500
C422        C  0.16808906  0.11675717  0.41438642    -0.19700
C423        C  0.13960083  0.11315001  0.42069053     0.20500
C424        C  0.11888860  0.09086787  0.44900428    -0.32700
C425        C  0.09082031  0.08812460  0.45711024     0.01200
C426        C  0.08327959  0.10741054  0.43491226    -0.24100
C427        C  0.16661355  0.19785430  0.32229559    -0.28700
C428        C  0.19546446  0.20199739  0.31759102     0.06900
C429        C  0.20291264  0.18269068  0.33955714    -0.27300
H430        H  0.11070690  0.18603307  0.33955394     0.11600
H431        H  0.07467233  0.14700269  0.38896588     0.12700
H432        H  0.21100761  0.14223263  0.38359305     0.11800
H433        H  0.17429793  0.10203381  0.43073270     0.11100
H434        H  0.12511250  0.07634638  0.46597622     0.16500
H435        H  0.06177521  0.10557952  0.44077206     0.12400
H436        H  0.16097048  0.21290244  0.30556606     0.15200
H437        H  0.22516185  0.18588223  0.33580417     0.15000
C438        C  0.21331438  0.19580358  0.03153701    -0.17900
C439        C  0.21351064  0.19600508  0.07766035    -0.20000
C440        C  0.22311885  0.22279872  0.10086245     0.20600
C441        C  0.23219900  0.24959108  0.07735680    -0.03000
C442        C  0.23202431  0.24939230  0.03074982    -0.06000
C443        C  0.22276773  0.22240108  0.00780577     0.20900
C444        C  0.24163923  0.27627330  0.00717237     0.19000
C445        C  0.25062531  0.30293957  0.03042000    -0.17500
C446        C  0.25080805  0.30313932  0.07659120    -0.19700
C447        C  0.24197547  0.27666959  0.10036904     0.20500
C448        C  0.24315770  0.27687374  0.14667403    -0.32700
C449        C  0.23458109  0.25032477  0.17035524     0.01200
C450        C  0.22429290  0.22333245  0.14710297    -0.24100
C451        C  0.22367107  0.22255349  0.96157818    -0.28700
C452        C  0.23388512  0.24936274  0.93774733     0.06900
C453        C  0.24255285  0.27609685  0.96085036    -0.27300
H454        H  0.20606921  0.17487258  0.01441096     0.11600
H455        H  0.20641281  0.17522918  0.09519580     0.12700
H456        H  0.25788443  0.32374279  0.01288261     0.11800
H457        H  0.25820367  0.32409655  0.09371383     0.11100
H458        H  0.25082453  0.29770162  0.16433616     0.16500
H459        H  0.21800414  0.20284113  0.16498902     0.12400
H460        H  0.21721961  0.20188331  0.94414377     0.15200
H461        H  0.25005483  0.29674888  0.94274035     0.15000
C462        C  0.21834103  0.72697560  0.29073738     0.03100
C463        C  0.24456682  0.74913824  0.31080249    -0.13100
C464        C  0.26737564  0.77233299  0.28585148     0.00600
C465        C  0.26346070  0.77311308  0.24007346    -0.11600
C466        C  0.23736706  0.75080741  0.21924797     0.03100
C467        C  0.21474412  0.72800591  0.24505427    -0.11000
H468        H  0.24705286  0.74830759  0.34617107     0.08700
H469        H  0.28130972  0.79027872  0.22038463     0.06200
H470        H  0.19456007  0.71069525  0.22954493     0.06000
C471        C  0.21547352  0.72423448  0.81877441     0.03100
C472        C  0.24099572  0.74612531  0.79703500    -0.13100
C473        C  0.26444754  0.76982724  0.82042493     0.00600
C474        C  0.26159669  0.77126568  0.86650347    -0.11600
C475        C  0.23595206  0.74926709  0.88879551     0.03100
C476        C  0.21285474  0.72605077  0.86437753    -0.11000
H477        H  0.24228701  0.74463251  0.76156627     0.08700
H478        H  0.27980804  0.78871502  0.88528715     0.06200
H479        H  0.19301298  0.70897450  0.88091522     0.06000
C480        C  0.24225327  0.96493620  0.28548685     0.03100
C481        C  0.23900452  0.96041388  0.23976768    -0.13100
C482        C  0.21496318  0.96011127  0.21750125     0.00600
C483        C  0.19341945  0.96297228  0.24203829    -0.11600
C484        C  0.19605782  0.96696067  0.28807789     0.03100
C485        C  0.22108148  0.96863286  0.30915129    -0.11000
H486        H  0.25584726  0.95838139  0.22143432     0.08700
H487        H  0.17423537  0.96139565  0.22519943     0.06200
H488        H  0.22423538  0.97274338  0.34429932     0.06000
C489        C  0.23475569  0.95463542  0.81639391     0.03100
C490        C  0.23405592  0.95305937  0.86268588    -0.13100
C491        C  0.21143092  0.95452649  0.88654471     0.00600
C492        C  0.18923318  0.95700066  0.86325112    -0.11600
C493        C  0.18966980  0.95856776  0.81700675     0.03100
C494        C  0.21248580  0.95718840  0.79393204    -0.11000
H495        H  0.25180299  0.95201875  0.88004383     0.08700
H496        H  0.17189820  0.95835999  0.88125143     0.06200
H497        H  0.21322945  0.95844791  0.75824761     0.06000
C498        C  0.51621767  0.75194122  0.29145678     0.03100
C499        C  0.51297478  0.72666728  0.31344365    -0.13100
C500        C  0.51217672  0.70278701  0.29011356     0.00600
C501        C  0.51504708  0.70477306  0.24392453    -0.11600
C502        C  0.51880452  0.73026897  0.22111921     0.03100
C503        C  0.52001289  0.75407021  0.24561713    -0.11000
H504        H  0.51056148  0.72553254  0.34898759     0.08700
H505        H  0.51272971  0.68574203  0.22566296     0.06200
H506        H  0.52281070  0.77389424  0.22911207     0.06000
C507        C  0.50313989  0.74625282  0.81999623     0.03100
C508        C  0.50892828  0.74923707  0.86538055    -0.13100
C509        C  0.50867082  0.72586807  0.88980396     0.00600
C510        C  0.50369432  0.69982380  0.86725079    -0.11600
C511        C  0.49896964  0.69698292  0.82128742     0.03100
C512        C  0.49865133  0.72043744  0.79822712    -0.11000
H513        H  0.51299114  0.76959576  0.88160277     0.08700
H514        H  0.50243738  0.68127373  0.88562143     0.06200
H515        H  0.49532966  0.71900824  0.76285938     0.06000
O516        O  0.41627049  0.49634747  0.50418768    -0.88200
C517        C  0.06901905  0.56527547  0.61935204     1.11800
O518        O  0.45400490  0.97469164  0.55290358    -1.36000
O519        O  0.04911125  0.56967063  0.50555034    -0.89700
O520        O  0.39391860  0.94645163  0.50207711    -0.90400
O521        O  0.45707529  0.94609886  0.46007362    -0.79200
O522        O  0.48249932  0.53372937  0.51232201    -1.01300
C523        C  0.04234840  0.97942309  0.47408525     1.21900
O524        O  0.48771937  0.94636109  0.55359388    -1.36200
Mn525      Mn  0.48542337  0.97640736  0.60146498     1.82100
O526        O  0.01930519  0.97927131  0.46091664    -0.78300
O527        O  0.07611258  0.54684315  0.50559196    -0.87700
C528        C  0.04065023  0.97957102  0.63551821     1.12900
C529        C  0.07056207  0.56668587  0.49107906     1.07700
O530        O  0.45443073  0.94443599  0.64562643    -0.79200
O531        O  0.01616699  0.50880459  0.55434764    -1.32900
O532        O  0.42868055  0.91537435  0.59365936    -0.98400
C533        C  0.49214354  0.89272407  0.48959164     1.06400
Mn534      Mn  0.05931906  0.51370846  0.55473238     1.48600
O535        O  0.46643661  0.88662496  0.50320738    -0.87600
Mn536      Mn  0.41287786  0.93299924  0.55177232     1.49600
O537        O  0.41551763  0.99557572  0.60259680    -0.91500
C538        C  0.48377104  0.52974907  0.47292219     1.19600
C539        C  0.39573312  0.96984090  0.61646301     1.11600
Mn540      Mn  0.48678385  0.97719978  0.50579599     1.81000
O541        O  0.04570057  0.98024274  0.59618607    -0.96700
Mn542      Mn  0.44875941  0.51284716  0.55352672     1.49300
C543        C  0.39703777  0.97112954  0.48834762     1.08100
Mn544      Mn  0.02886448  0.94652784  0.55490721     1.49900
C545        C  0.49054683  0.89206738  0.61773786     1.11100
O546        O  0.42973171  0.91616520  0.51030186    -1.02500
O547        O  0.07520930  0.54618996  0.60393660    -0.92100
C548        C  0.43476250  0.92176933  0.47106378     1.22300
O549        O  0.04628342  0.98011652  0.51370224    -1.02800
O550        O  0.04791725  0.56865490  0.60448313    -0.90200
O551        O  0.01516251  0.91390997  0.60431051    -0.89800
O552        O  0.39282375  0.94563032  0.60096241    -0.89900
Mn553      Mn  0.01590580  0.54989519  0.55433535     1.47900
O554        O  0.01647737  0.97745793  0.64720661    -0.78300
C555        C  0.43246104  0.92020121  0.63323861     1.15400
O556        O  0.48609201  0.50782201  0.46107045    -0.77100
O557        O  0.48403829  0.50686738  0.64677951    -0.76700
Mn558      Mn  0.44946312  0.90270672  0.55229690     1.51100
O559        O  0.01623542  0.91395524  0.50553374    -0.89000
O560        O  0.48195399  0.53335349  0.59522892    -0.96600
O561        O  0.46536382  0.88591650  0.60170656    -0.91600
C562        C  0.48244949  0.52924402  0.63470479     1.13200
C563        C  0.01994964  0.59219650  0.76925935    -0.17900
C564        C  0.02264653  0.61600960  0.79487731    -0.20000
C565        C  0.50682913  0.63059523  0.78367120     0.20600
C566        C  0.48806015  0.62097167  0.74628794    -0.03000
C567        C  0.48566215  0.59722256  0.72007791    -0.06000
C568        C  0.50160620  0.58265644  0.73167954     0.20900
C569        C  0.46766002  0.58838823  0.68189408     0.19000
C570        C  0.45168532  0.60278267  0.67076740    -0.17500
C571        C  0.45366320  0.62590215  0.69709578    -0.19700
C572        C  0.47194390  0.63530539  0.73469381     0.20500
C573        C  0.47470739  0.65910597  0.76039883    -0.32700
C574        C  0.49416030  0.66970362  0.79695723     0.01200
C575        C  0.50987980  0.65495377  0.80863339    -0.24100
C576        C  0.99937626  0.55929316  0.70497807    -0.28700
C577        C  0.48213813  0.55103876  0.66616347     0.06900
C578        C  0.46629683  0.56566229  0.65504647    -0.27300
H579        H  0.03256180  0.58149233  0.77853688     0.11600
H580        H  0.03724632  0.62312202  0.82335487     0.12700
H581        H  0.43772623  0.59621794  0.64160438     0.11800
H582        H  0.44117234  0.63671692  0.68768496     0.11100
H583        H  0.46177864  0.66955092  0.75155132     0.16500
H584        H  0.02514263  0.66292000  0.83635688     0.12400
H585        H  0.01204008  0.54846299  0.71328908     0.15200
H586        H  0.45301924  0.55943588  0.62515761     0.15000
C587        C  0.54556920  0.86897616  0.73020992    -0.17900
C588        C  0.54717342  0.84879780  0.75933206    -0.20000
C589        C  0.52261843  0.81983315  0.76474067     0.20600
C590        C  0.49594758  0.81141466  0.74129516    -0.03000
C591        C  0.49413156  0.83202587  0.71267583    -0.06000
C592        C  0.51919250  0.86082749  0.70671610     0.20900
C593        C  0.46750320  0.82351176  0.68915619     0.19000
C594        C  0.44290814  0.79459662  0.69459454    -0.17500
C595        C  0.44484959  0.77404706  0.72239627    -0.19700
C596        C  0.47131349  0.78215659  0.74557306     0.20500
C597        C  0.47380396  0.76131129  0.77212076    -0.32700
C598        C  0.50040371  0.76937673  0.79500471     0.01200
C599        C  0.52452149  0.79884118  0.79204153    -0.24100
C600        C  0.51767888  0.88065230  0.67653476    -0.28700
C601        C  0.49131298  0.87219737  0.65247862     0.06900
C602        C  0.46615083  0.84373787  0.65971767    -0.27300
H603        H  0.56514009  0.89085081  0.72558356     0.11600
H604        H  0.56784848  0.85563682  0.77688573     0.12700
H605        H  0.42231058  0.78770504  0.67676235     0.11800
H606        H  0.42572105  0.75169133  0.72544920     0.11100
H607        H  0.45514994  0.73861007  0.77469998     0.16500
H608        H  0.54507135  0.80498866  0.80956358     0.12400
H609        H  0.53721686  0.90249024  0.67126533     0.15200
H610        H  0.44577197  0.83685539  0.64124771     0.15000
C611        C  0.45695332  0.60556145  0.43522318    -0.17900
C612        C  0.46121352  0.62996839  0.40991989    -0.20000
C613        C  0.48079286  0.63956354  0.37383465     0.20600
C614        C  0.49577124  0.62406580  0.36242578    -0.03000
C615        C  0.49119190  0.59915301  0.38769429    -0.06000
C616        C  0.47204177  0.59023250  0.42462971     0.20900
C617        C  0.00624053  0.58361784  0.37664173     0.19000
C618        C  0.02551284  0.59304097  0.34011964    -0.17500
C619        C  0.03022170  0.61791391  0.31522758    -0.19700
C620        C  0.01561842  0.63372739  0.32627905     0.20500
C621        C  0.02080199  0.65925939  0.30235333    -0.32700
C622        C  0.50622270  0.67510872  0.31405059     0.01200
C623        C  0.48585041  0.66463101  0.34937846    -0.24100
C624        C  0.46892501  0.56668670  0.45113235    -0.28700
C625        C  0.48438411  0.55160516  0.44108413     0.06900
C626        C  0.00241019  0.55958772  0.40315358    -0.27300
H627        H  0.44209248  0.59886568  0.46337397     0.11600
H628        H  0.44950865  0.64163239  0.41898561     0.12700
H629        H  0.03737407  0.58149606  0.33126018     0.11800
H630        H  0.04555190  0.62498528  0.28763489     0.11100
H631        H  0.03660864  0.66713327  0.27530702     0.16500
H632        H  0.47379757  0.67602491  0.35797496     0.11300
H633        H  0.45490155  0.56043757  0.48025183     0.15200
H634        H  0.01462120  0.54816403  0.39565056     0.15000
C635        C  0.45298024  0.77630871  0.38334705    -0.17900
C636        C  0.44925661  0.79617088  0.41023489    -0.20000
C637        C  0.47300368  0.82540359  0.41704992     0.20600
C638        C  0.50052815  0.83496489  0.39550526    -0.03000
C639        C  0.50418274  0.81501149  0.36789228    -0.06000
C640        C  0.48041986  0.78539998  0.36248614     0.20900
C641        C  0.53178298  0.82446982  0.34654087     0.19000
C642        C  0.05530229  0.85393368  0.35261465    -0.17500
C643        C  0.05179365  0.87358672  0.38040793    -0.19700
C644        C  0.52462012  0.86419856  0.40239225     0.20500
C645        C  0.52138389  0.88324588  0.43203144    -0.32700
C646        C  0.49430347  0.87364724  0.45472142     0.01200
C647        C  0.46995662  0.84489744  0.44604116    -0.24100
C648        C  0.48467350  0.76523827  0.33700576    -0.28700
C649        C  0.51217652  0.77431685  0.31623576     0.06900
C650        C  0.53549602  0.80410106  0.32032876    -0.27300
H651        H  0.43446305  0.75369016  0.37926187     0.11600
H652        H  0.42795779  0.78848671  0.42636259     0.12700
H653        H  0.07660105  0.86164396  0.33644551     0.11800
H654        H  0.07047023  0.89603716  0.38512015     0.11100
H655        H  0.54017246  0.90535284  0.43804109     0.16500
H656        H  0.44898795  0.83719772  0.46321859     0.12400
H657        H  0.46662840  0.74230093  0.33345237     0.15200
H658        H  0.05669842  0.81106326  0.30426057     0.15000
C659        C  0.04151579  0.70157152  0.03032787    -0.17900
C660        C  0.04284042  0.70208671  0.07647340    -0.20000
C661        C  0.03083818  0.71661904  0.10092751     0.20600
C662        C  0.51749638  0.73087221  0.07857507    -0.03000
C663        C  0.51616401  0.73035676  0.03200246    -0.06000
C664        C  0.02813954  0.71555422  0.00776420     0.20900
C665        C  0.50252133  0.74434751  0.00978356     0.19000
C666        C  0.49072344  0.75908067  0.03416370    -0.17500
C667        C  0.49200878  0.75955881  0.08022271    -0.19700
C668        C  0.50516417  0.74536197  0.10271709     0.20500
C669        C  0.50581151  0.74511830  0.14892226    -0.32700
C670        C  0.51913734  0.73105603  0.17179493     0.01200
C671        C  0.03179882  0.71700625  0.14727113    -0.24100
C672        C  0.02627851  0.71473798  0.96147722    -0.28700
C673        C  0.51210956  0.72809165  0.93891089     0.06900
C674        C  0.50041810  0.74296366  0.96364125    -0.27300
H675        H  0.05080625  0.69006367  0.01228381     0.11600
H676        H  0.05313721  0.69097696  0.09305065     0.12700
H677        H  0.48027169  0.77004641  0.01760920     0.11800
H678        H  0.48253571  0.77089495  0.09827622     0.11100
H679        H  0.49519754  0.75532439  0.16696175     0.16500
H680        H  0.04252002  0.70643043  0.16414967     0.12400
H681        H  0.03591054  0.70369101  0.94309587     0.15200
H682        H  0.48886012  0.75282237  0.94719040     0.15000
C683        C  0.30967953  0.90995207  0.71612751    -0.17900
C684        C  0.28692842  0.90768852  0.74375982    -0.20000
C685        C  0.28511716  0.93316893  0.75441426     0.20600
C686        C  0.30668328  0.96127362  0.73722424    -0.03000
C687        C  0.32969460  0.96356380  0.70942547    -0.06000
C688        C  0.33105629  0.93774993  0.69853233     0.20900
C689        C  0.35105358  0.99163822  0.69203347     0.19000
C690        C  0.34939173  0.51715683  0.70283176    -0.17500
C691        C  0.32655016  0.51487714  0.73009202    -0.19700
C692        C  0.30503913  0.98706141  0.74728665     0.20500
C693        C  0.28173960  0.98456688  0.77392300    -0.32700
C694        C  0.26018837  0.95672761  0.79106885     0.01200
C695        C  0.26201828  0.93109149  0.78146716    -0.24100
C696        C  0.35332330  0.94007471  0.66948393    -0.28700
C697        C  0.37429072  0.96791199  0.65096197     0.06900
C698        C  0.37328136  0.99365852  0.66332785    -0.27300
H699        H  0.31042536  0.88990448  0.70825249     0.11600
H700        H  0.27061727  0.88592830  0.75659817     0.12700
H701        H  0.36560595  0.53888725  0.68978181     0.11800
H702        H  0.32561783  0.53487858  0.73755023     0.11100
H703        H  0.28011669  0.50424803  0.78109469     0.16500
H704        H  0.24513901  0.90955510  0.79428603     0.12400
H705        H  0.35388643  0.92006937  0.66058413     0.15200
H706        H  0.38922697  0.01523967  0.64950237     0.15000
C707        C  0.16527488  0.00713564  0.69683460    -0.17900
C708        C  0.14446253  0.01046888  0.67187415    -0.20000
C709        C  0.11406768  0.99452507  0.68298840     0.20600
C710        C  0.10453532  0.97557826  0.72020576    -0.03000
C711        C  0.12553065  0.97194828  0.74512295    -0.06000
C712        C  0.15597822  0.98764432  0.73308536     0.20900
C713        C  0.11601612  0.95227994  0.78152801     0.19000
C714        C  0.08565751  0.93697965  0.79327831    -0.17500
C715        C  0.06483736  0.94074592  0.76872874    -0.19700
C716        C  0.07397751  0.95973918  0.73185784     0.20500
C717        C  0.05308866  0.96248499  0.70557863    -0.32700
C718        C  0.06244910  0.98020837  0.66731295     0.01200
C719        C  0.09296336  0.99652922  0.65670665    -0.24100
C720        C  0.17661329  0.98336594  0.75712116    -0.28700
C721        C  0.16734728  0.96327107  0.79279658     0.06900
C722        C  0.13697449  0.94799992  0.80509307    -0.27300
H723        H  0.18860559  0.01945327  0.68735290     0.11600
H724        H  0.15209151  0.02524471  0.64353522     0.12700
H725        H  0.07794125  0.92178495  0.82111437     0.11800
H726        H  0.04147929  0.92830621  0.77804954     0.11100
H727        H  0.02948775  0.94962947  0.71347041     0.16500
H728        H  0.10019884  0.01029867  0.62725429     0.12400
H729        H  0.20002586  0.99580286  0.74804328     0.15200
H730        H  0.12956943  0.93238176  0.83243012     0.15000
C731        C  0.33072318  0.02119265  0.37969980    -0.17900
C732        C  0.35241716  0.02203291  0.40804161    -0.20000
C733        C  0.35449516  0.99630753  0.41500401     0.20600
C734        C  0.33495854  0.96960422  0.39254286    -0.03000
C735        C  0.31323974  0.96884300  0.36349584    -0.06000
C736        C  0.31089252  0.99468609  0.35761032     0.20900
C737        C  0.29342469  0.94208886  0.34124160     0.19000
C738        C  0.29575693  0.91644762  0.34799925    -0.17500
C739        C  0.31707629  0.91712409  0.37720905    -0.19700
C740        C  0.33666167  0.94352674  0.39986169     0.20500
C741        C  0.35744827  0.94418708  0.43039218    -0.32700
C742        C  0.37670216  0.97068445  0.45344800     0.01200
C743        C  0.37534767  0.99674205  0.44484443    -0.24100
C744        C  0.28824785  0.99337129  0.33071170    -0.28700
C745        C  0.26808804  0.96671384  0.30918556     0.06900
C746        C  0.27111956  0.94129149  0.31374426    -0.27300
H747        H  0.32924651  0.04122756  0.37542165     0.11600
H748        H  0.36729062  0.04269931  0.42504044     0.12700
H749        H  0.28075346  0.89571302  0.33125200     0.11800
H750        H  0.31802014  0.89687838  0.38245219     0.11100
H751        H  0.35830815  0.92398492  0.43664235     0.16500
H752        H  0.38992733  0.01727134  0.46240738     0.12400
H753        H  0.28581532  0.01292240  0.32715650     0.15200
H754        H  0.25534197  0.92065009  0.29740691     0.15000
C755        C  0.09710968  0.99842721  0.33162945    -0.17900
C756        C  0.11914633  0.99727670  0.30620726    -0.20000
C757        C  0.13489489  0.98379973  0.32289286     0.20600
C758        C  0.12836636  0.97144538  0.36567118    -0.03000
C759        C  0.10652348  0.97305789  0.39156623    -0.06000
C760        C  0.09062964  0.98646612  0.37445553     0.20900
C761        C  0.10081387  0.96146336  0.43475908     0.19000
C762        C  0.11616495  0.94762361  0.45135368    -0.17500
C763        C  0.13733118  0.94553858  0.42547440    -0.19700
C764        C  0.14375499  0.95757658  0.38277160     0.20500
C765        C  0.16534819  0.95596940  0.35702824    -0.32700
C766        C  0.17255091  0.96863746  0.31451338     0.01200
C767        C  0.15709921  0.98255476  0.29771276    -0.24100
C768        C  0.06887721  0.98791965  0.40070628    -0.28700
C769        C  0.06373904  0.97702642  0.44425287     0.06900
C770        C  0.07999043  0.96402377  0.46087125    -0.27300
H771        H  0.08529084  0.00891005  0.31788089     0.11600
H772        H  0.12382310  0.00687660  0.27342026     0.12700
H773        H  0.11180312  0.93841340  0.48440249     0.11800
H774        H  0.14890306  0.93475099  0.43904708     0.11100
H775        H  0.17634816  0.94448729  0.37014643     0.16500
H776        H  0.16253776  0.99272640  0.26530394     0.12400
H777        H  0.05664323  0.99821536  0.38782366     0.15200
H778        H  0.07611850  0.95542768  0.49430670     0.15000
C779        C  0.19868228  0.99491128  0.02784544    -0.17900
C780        C  0.19877093  0.99538869  0.07397674    -0.20000
C781        C  0.20513169  0.97606503  0.09808224     0.20600
C782        C  0.21123126  0.95588344  0.07547782    -0.03000
C783        C  0.21109498  0.95536857  0.02885695    -0.06000
C784        C  0.20490546  0.97506498  0.00498937     0.20900
C785        C  0.21738903  0.93533303  0.00618518     0.19000
C786        C  0.22340217  0.91577658  0.03034504    -0.17500
C787        C  0.22360633  0.91633293  0.07651388    -0.19700
C788        C  0.21776357  0.93643356  0.09940573     0.20500
C789        C  0.21862286  0.93762862  0.14572899    -0.32700
C790        C  0.21287205  0.95792025  0.16852620     0.01200
C791        C  0.20587970  0.97686373  0.14434527    -0.24100
C792        C  0.20518728  0.97469253  0.95871614    -0.28700
C793        C  0.21150134  0.95482890  0.93571391     0.06900
C794        C  0.21761573  0.93523642  0.95981973    -0.27300
H795        H  0.19383917  0.01015706  0.01002727     0.11600
H796        H  0.19402755  0.01101304  0.09081210     0.12700
H797        H  0.22814255  0.90015045  0.01351554     0.11800
H798        H  0.22853375  0.90114862  0.09432829     0.11100
H799        H  0.22370476  0.92273475  0.16408132     0.16500
H800        H  0.20175748  0.99280251  0.16156134     0.12400
H801        H  0.20087785  0.99020114  0.94056100     0.15200
H802        H  0.22219010  0.91966009  0.94246185     0.15000
C803        C  0.37022411  0.89563516  0.76815973    -0.17900
C804        C  0.34642334  0.87462532  0.79402793    -0.20000
C805        C  0.33151122  0.84408087  0.78304166     0.20600
C806        C  0.34091420  0.83468368  0.74575112    -0.03000
C807        C  0.36468570  0.85590069  0.71937053    -0.06000
C808        C  0.37945815  0.88655812  0.73060944     0.20900
C809        C  0.37327947  0.84644511  0.68128987     0.19000
C810        C  0.35868371  0.81594490  0.67049793    -0.17500
C811        C  0.33549648  0.79494427  0.69693279    -0.19700
C812        C  0.32628569  0.80411135  0.73434515     0.20500
C813        C  0.30233826  0.78321642  0.75998996    -0.32700
C814        C  0.29187334  0.79230649  0.79632874     0.01200
C815        C  0.30700489  0.82287149  0.80803188    -0.24100
C816        C  0.40268740  0.90755093  0.70352720    -0.28700
C817        C  0.41061380  0.89824482  0.66476516     0.06900
C818        C  0.39592100  0.86765455  0.65413397    -0.27300
H819        H  0.38116352  0.91906761  0.77722181     0.11600
H820        H  0.33954104  0.88231016  0.82248090     0.12700
H821        H  0.36508807  0.80834311  0.64143660     0.11800
H822        H  0.32445448  0.77153112  0.68772204     0.11100
H823        H  0.29164503  0.75974404  0.75124248     0.16500
H824        H  0.29920488  0.83031190  0.83571812     0.12400
H825        H  0.41369864  0.93117135  0.71153616     0.15200
H826        H  0.40200015  0.86038597  0.62436610     0.15000
C827        C  0.18414097  0.63338741  0.73032693    -0.17900
C828        C  0.16313373  0.61038798  0.70360220    -0.20000
C829        C  0.13534037  0.60795448  0.69520624     0.20600
C830        C  0.12818054  0.62820329  0.71514931    -0.03000
C831        C  0.14923106  0.65118073  0.74259602    -0.06000
C832        C  0.17755568  0.65409970  0.74946601     0.20900
C833        C  0.14223807  0.67168553  0.76219469     0.19000
C834        C  0.11411704  0.66872177  0.75466439    -0.17500
C835        C  0.09341502  0.64619395  0.72693100    -0.19700
C836        C  0.10038067  0.62608724  0.70659087     0.20500
C837        C  0.08052903  0.60464089  0.67661022    -0.32700
C838        C  0.08807433  0.58521044  0.65515268     0.01200
C839        C  0.11509684  0.58636137  0.66587110    -0.24100
C840        C  0.19896012  0.67799030  0.77469357    -0.28700
C841        C  0.19222644  0.69861493  0.79379419     0.06900
C842        C  0.16373133  0.69512646  0.78816964    -0.27300
H843        H  0.20569965  0.63520389  0.73557968     0.11600
H844        H  0.16888740  0.59491382  0.68867389     0.12700
H845        H  0.10834749  0.68418956  0.76954578     0.11800
H846        H  0.07212846  0.64480898  0.72081241     0.11100
H847        H  0.05962714  0.60372901  0.66899436     0.16500
H848        H  0.12108892  0.57137454  0.64983923     0.12400
H849        H  0.22096091  0.68070891  0.77942491     0.15200
H850        H  0.15868670  0.71115669  0.80298611     0.15000
C851        C  0.34412069  0.79693691  0.39992298    -0.17900
C852        C  0.36747520  0.81787211  0.42610479    -0.20000
C853        C  0.37999647  0.84856326  0.41792126     0.20600
C854        C  0.36965678  0.85833527  0.38210018    -0.03000
C855        C  0.34577438  0.83716709  0.35597710    -0.06000
C856        C  0.33276387  0.80638070  0.36540357     0.20900
C857        C  0.33435701  0.84680209  0.32137769     0.19000
C858        C  0.34769688  0.87755523  0.31231721    -0.17500
C859        C  0.37161389  0.89856857  0.33797755    -0.19700
C860        C  0.38248962  0.88923026  0.37334708     0.20500
C861        C  0.40518895  0.91012781  0.40110065    -0.32700
C862        C  0.41431422  0.90035264  0.43812480     0.01200
C863        C  0.40196790  0.86961645  0.44589346    -0.24100
C864        C  0.30805285  0.78553662  0.34107111    -0.28700
C865        C  0.29552405  0.79485789  0.30789255     0.06900
C866        C  0.30928084  0.82556066  0.29745988    -0.27300
H867        H  0.33445082  0.77334960  0.40735594     0.11600
H868        H  0.37540436  0.81007233  0.45324603     0.12700
H869        H  0.33928837  0.88539949  0.28588145     0.11800
H870        H  0.38111992  0.92217756  0.33082019     0.11100
H871        H  0.41456760  0.93390169  0.39536565     0.16500
H872        H  0.40908261  0.86209292  0.47436019     0.12400
H873        H  0.29816827  0.76192241  0.34855983     0.15200
H874        H  0.29983575  0.83299176  0.27192276     0.15000
C875        C  0.11693948  0.67133146  0.35592505    -0.17900
C876        C  0.09630895  0.64896022  0.38404528    -0.20000
C877        C  0.10360444  0.62949212  0.40583387     0.20600
C878        C  0.13200643  0.63261366  0.39912242    -0.03000
C879        C  0.15305193  0.65556108  0.37140038    -0.06000
C880        C  0.14544557  0.67496761  0.34956789     0.20900
C881        C  0.18182149  0.65930408  0.36601062     0.19000
C882        C  0.18906055  0.63972604  0.38748732    -0.17500
C883        C  0.16809063  0.61675855  0.41438583    -0.19700
C884        C  0.13960229  0.61315120  0.42069015     0.20500
C885        C  0.11889024  0.59086893  0.44900392    -0.32700
C886        C  0.09082175  0.58812522  0.45710974     0.01200
C887        C  0.08328071  0.60741092  0.43491178    -0.24100
C888        C  0.16661401  0.69785525  0.32229523    -0.28700
C889        C  0.19546487  0.70199833  0.31759008     0.06900
C890        C  0.20291331  0.68269176  0.33955600    -0.27300
H891        H  0.11070718  0.68603347  0.33955382     0.11600
H892        H  0.07467254  0.64700241  0.38896507     0.12700
H893        H  0.21100900  0.64223409  0.38359165     0.11800
H894        H  0.17429967  0.60203546  0.43073191     0.11100
H895        H  0.12511439  0.57634763  0.46597594     0.16500
H896        H  0.06177608  0.60557948  0.44077142     0.12400
H897        H  0.16097078  0.71290337  0.30556585     0.15200
H898        H  0.22516253  0.68588339  0.33580266     0.15000
C899        C  0.21331551  0.69580468  0.03153665    -0.17900
C900        C  0.21351199  0.69600626  0.07765999    -0.20000
C901        C  0.22311984  0.72279987  0.10086193     0.20600
C902        C  0.23219962  0.74959217  0.07735634    -0.03000
C903        C  0.23202469  0.74939331  0.03074945    -0.06000
C904        C  0.22276829  0.72240211  0.00780555     0.20900
C905        C  0.24163908  0.77627422  0.00717197     0.19000
C906        C  0.25062498  0.80294043  0.03041955    -0.17500
C907        C  0.25080795  0.80314030  0.07659069    -0.19700
C908        C  0.24197577  0.77667062  0.10036852     0.20500
C909        C  0.24315800  0.77687479  0.14667349    -0.32700
C910        C  0.23458158  0.75032579  0.17035455     0.01200
C911        C  0.22429382  0.72333356  0.14710238    -0.24100
C912        C  0.22367124  0.72255432  0.96157805    -0.28700
C913        C  0.23388467  0.74936343  0.93774724     0.06900
C914        C  0.24255225  0.77609758  0.96084998    -0.27300
H915        H  0.20607067  0.67487388  0.01441075     0.11600
H916        H  0.20641464  0.67523056  0.09519535     0.12700
H917        H  0.25788381  0.82374375  0.01288198     0.11800
H918        H  0.25820335  0.82409746  0.09371331     0.11100
H919        H  0.25082457  0.79770255  0.16433562     0.16500
H920        H  0.21800533  0.70284238  0.16498840     0.12400
H921        H  0.21722007  0.70188429  0.94414381     0.15200
H922        H  0.25005379  0.79674945  0.94273983     0.15000
C923        C  0.71834055  0.22697513  0.29073845     0.03100
C924        C  0.74456596  0.24913822  0.31080386    -0.13100
C925        C  0.76737444  0.27233357  0.28585309     0.00600
C926        C  0.76345954  0.27311368  0.24007501    -0.11600
C927        C  0.73736635  0.25080745  0.21924915     0.03100
C928        C  0.71474370  0.22800548  0.24505530    -0.11000
H929        H  0.74705198  0.24830750  0.34617229     0.08700
H930        H  0.78130835  0.29027971  0.22038642     0.06200
H931        H  0.69456000  0.21069460  0.22954593     0.06000
C932        C  0.71547315  0.22423444  0.81877450     0.03100
C933        C  0.74099514  0.24612536  0.79703475    -0.13100
C934        C  0.76444709  0.26982735  0.82042435     0.00600
C935        C  0.76159670  0.27126567  0.86650314    -0.11600
C936        C  0.73595230  0.24926681  0.88879569     0.03100
C937        C  0.71285489  0.22605050  0.86437780    -0.11000
H938        H  0.74228614  0.24463261  0.76156589     0.08700
H939        H  0.77980806  0.28871508  0.88528639     0.06200
H940        H  0.69301314  0.20897404  0.88091577     0.06000
C941        C  0.74225592  0.46493798  0.28548749     0.03100
C942        C  0.73900695  0.46041568  0.23976830    -0.13100
C943        C  0.71496558  0.46011335  0.21750225     0.00600
C944        C  0.69342220  0.46297458  0.24203962    -0.11600
C945        C  0.69606095  0.46696318  0.28807903     0.03100
C946        C  0.72108454  0.46863511  0.30915216    -0.11000
H947        H  0.75584941  0.45838294  0.22143474     0.08700
H948        H  0.67423791  0.46139788  0.22520109     0.06200
H949        H  0.72423861  0.47274569  0.34430019     0.06000
C950        C  0.73475690  0.45463770  0.81639550     0.03100
C951        C  0.73405731  0.45306226  0.86268762    -0.13100
C952        C  0.71143099  0.45452730  0.88654615     0.00600
C953        C  0.68923193  0.45699897  0.86325239    -0.11600
C954        C  0.68966860  0.45856582  0.81700808     0.03100
C955        C  0.71248568  0.45718831  0.79393352    -0.11000
H956        H  0.75180511  0.45202330  0.88004576     0.08700
H957        H  0.67189602  0.45835684  0.88125241     0.06200
H958        H  0.71322915  0.45844763  0.75824884     0.06000
C959        C  0.01621952  0.25194179  0.29145586     0.03100
C960        C  0.01297770  0.22666839  0.31344283    -0.13100
C961        C  0.01218032  0.20278839  0.29011301     0.00600
C962        C  0.01505067  0.20477436  0.24392394    -0.11600
C963        C  0.01880706  0.23026981  0.22111844     0.03100
C964        C  0.02001455  0.25407071  0.24561619    -0.11000
H965        H  0.01056457  0.22553376  0.34898699     0.08700
H966        H  0.01273399  0.18574346  0.22566245     0.06200
H967        H  0.02281157  0.27389435  0.22911104     0.06000
C968        C  0.00314500  0.24625724  0.81999640     0.03100
C969        C  0.00893317  0.24924097  0.86538066    -0.13100
C970        C  0.00867435  0.22587119  0.88980354     0.00600
C971        C  0.00369647  0.19982655  0.86725012    -0.11600
C972        C  0.99897179  0.19698601  0.82128662     0.03100
C973        C  0.99865505  0.22044149  0.79822673    -0.11000
H974        H  0.01299675  0.26959971  0.88160331     0.08700
H975        H  0.00243858  0.18127604  0.88562084     0.06200
H976        H  0.99533341  0.21901278  0.76285904     0.06000
O977        O  0.91626914  0.99634804  0.50418764    -0.88200
C978        C  0.56901707  0.06527565  0.61935276     1.11800
O979        O  0.95400647  0.47469167  0.55290377    -1.36000
O980        O  0.54910994  0.06967034  0.50555057    -0.89700
O981        O  0.89392023  0.44645184  0.50207744    -0.90400
O982        O  0.95707644  0.44609880  0.46007352    -0.79200
O983        O  0.98249799  0.03372937  0.51232256    -1.01300
C984        C  0.54235039  0.47942421  0.47408410     1.21900
O985        O  0.98772113  0.44636131  0.55359301    -1.36200
Mn986      Mn  0.98542524  0.47640725  0.60146451     1.82100
O987        O  0.51930687  0.47927184  0.46091553    -0.78300
O988        O  0.57611119  0.04684278  0.50559335    -0.87700
C989        C  0.54065217  0.47957174  0.63551734     1.12900
C990        C  0.57056080  0.06668544  0.49107984     1.07700
O991        O  0.95443256  0.44443577  0.64562641    -0.79200
O992        O  0.51616531  0.00880455  0.55434827    -1.32900
O993        O  0.92868210  0.41537449  0.59365935    -0.98400
C994        C  0.99214506  0.39272434  0.48959077     1.06400
Mn995      Mn  0.55931722  0.01370813  0.55473394     1.48600
O996        O  0.96643829  0.38662499  0.50320758    -0.87600
Mn997      Mn  0.91287927  0.43299933  0.55177260     1.49600
O998        O  0.91551920  0.49557602  0.60259769    -0.91500
C999        C  0.98377011  0.02974921  0.47292282     1.19600
C1000       C  0.89573426  0.46984126  0.61646349     1.11600
Mn1001     Mn  0.98678524  0.47719989  0.50579553     1.81000
O1002       O  0.54570326  0.48024387  0.59618527    -0.96700
Mn1003     Mn  0.94875790  0.01284739  0.55352698     1.49300
C1004       C  0.89703942  0.47112983  0.48834835     1.08100
Mn1005     Mn  0.52886740  0.44652926  0.55490574     1.49900
C1006       C  0.99054988  0.39206918  0.61773739     1.11100
O1007       O  0.92973293  0.41616497  0.51030182    -1.02500
O1008       O  0.57520712  0.04618978  0.60393814    -0.92100
C1009       C  0.93476368  0.42176922  0.47106366     1.22300
O1010       O  0.54628556  0.48011780  0.51370098    -1.02800
O1011       O  0.54791549  0.06865520  0.60448317    -0.90200
O1012       O  0.51516646  0.41391191  0.60430874    -0.89800
O1013       O  0.89282491  0.44563061  0.60096290    -0.89900
Mn1014     Mn  0.51590423  0.04989522  0.55433526     1.47900
O1015       O  0.51647910  0.47745825  0.64720515    -0.78300
C1016       C  0.93246247  0.42020122  0.63323859     1.15400
O1017       O  0.98609107  0.00782214  0.46107124    -0.77100
O1018       O  0.98403628  0.00686750  0.64678033    -0.76700
Mn1019     Mn  0.94946491  0.40270701  0.55229693     1.51100
O1020       O  0.51623862  0.41395667  0.50553214    -0.89000
O1021       O  0.98195236  0.03335358  0.59522937    -0.96600
O1022       O  0.96536654  0.38591801  0.60170700    -0.91600
C1023       C  0.98244760  0.02924423  0.63470530     1.13200
C1024       C  0.51994221  0.09219305  0.76926303    -0.17900
C1025       C  0.52263948  0.11600630  0.79488090    -0.20000
C1026       C  0.00682723  0.13059563  0.78367183     0.20600
C1027       C  0.98805964  0.12097346  0.74628708    -0.03000
C1028       C  0.98566094  0.09722387  0.72007746    -0.06000
C1029       C  0.00160313  0.08265607  0.73168086     0.20900
C1030       C  0.96766025  0.08839080  0.68189223     0.19000
C1031       C  0.95168762  0.10278711  0.67076367    -0.17500
C1032       C  0.95366614  0.12590709  0.69709165    -0.19700
C1033       C  0.97194551  0.13530905  0.73469113     0.20500
C1034       C  0.97470976  0.15911018  0.76039587    -0.32700
C1035       C  0.99416138  0.16970635  0.79695598     0.01200
C1036       C  0.00987869  0.15495458  0.80863377    -0.24100
C1037       C  0.49937122  0.05929184  0.70497932    -0.28700
C1038       C  0.98213625  0.05103931  0.66616366     0.06900
C1039       C  0.96629662  0.06566441  0.65504496    -0.27300
H1040       H  0.53255205  0.08148685  0.77854295     0.11600
H1041       H  0.53723717  0.12311679  0.82336063     0.12700
H1042       H  0.93772969  0.09622352  0.64159940     0.11800
H1043       H  0.94117685  0.13672326  0.68767939     0.11100
H1044       H  0.96178265  0.16955644  0.75154698     0.16500
H1045       H  0.52513817  0.16291792  0.83635882     0.12400
H1046       H  0.51203304  0.04845991  0.71329261     0.15200
H1047       H  0.95302023  0.05943901  0.62515521     0.15000
C1048       C  0.04557630  0.36897878  0.73020330    -0.17900
C1049       C  0.04718104  0.34880073  0.75932556    -0.20000
C1050       C  0.02262502  0.31983711  0.76473843     0.20600
C1051       C  0.99595269  0.31141960  0.74129767    -0.03000
C1052       C  0.99413630  0.33203050  0.71267823    -0.06000
C1053       C  0.01919827  0.36083087  0.70671369     0.20900
C1054       C  0.96750650  0.32351720  0.68916314     0.19000
C1055       C  0.94291024  0.29460337  0.69460646    -0.17500
C1056       C  0.94485197  0.27405411  0.72240836    -0.19700
C1057       C  0.97131736  0.28216267  0.74558023     0.20500
C1058       C  0.97380803  0.26131734  0.77212734    -0.32700
C1059       C  0.00040928  0.26938163  0.79500600     0.01200
C1060       C  0.02452837  0.29884509  0.79203875    -0.24100
C1061       C  0.01768413  0.38065497  0.67653161    -0.28700
C1062       C  0.99131686  0.37220051  0.65247940     0.06900
C1063       C  0.96615375  0.34374260  0.65972373    -0.27300
H1064       H  0.06514790  0.39085258  0.72557357     0.11600
H1065       H  0.06785696  0.35563899  0.77687565     0.12700
H1066       H  0.92231158  0.28771251  0.67677788     0.11800
H1067       H  0.92572247  0.25169924  0.72546503     0.11100
H1068       H  0.95515307  0.23861692  0.77470999     0.16500
H1069       H  0.04507940  0.30499168  0.80955724     0.12400
H1070       H  0.03722287  0.40249187  0.67125829     0.15200
H1071       H  0.94577383  0.33686066  0.64125720     0.15000
C1072       C  0.95695466  0.10556290  0.43522205    -0.17900
C1073       C  0.96121552  0.12996998  0.40991861    -0.20000
C1074       C  0.98079565  0.13956524  0.37383431     0.20600
C1075       C  0.99577439  0.12406765  0.36242674    -0.03000
C1076       C  0.99119434  0.09915467  0.38769536    -0.06000
C1077       C  0.97204317  0.09023386  0.42462965     0.20900
C1078       C  0.50624491  0.08362062  0.37664443     0.19000
C1079       C  0.52551864  0.09304430  0.34012398    -0.17500
C1080       C  0.53022864  0.11791774  0.31523221    -0.19700
C1081       C  0.51562510  0.13373119  0.32628230     0.20500
C1082       C  0.52080889  0.15926306  0.30235597    -0.32700
C1083       C  0.00622641  0.17511035  0.31405055     0.01200
C1084       C  0.98585353  0.16463258  0.34937766    -0.24100
C1085       C  0.96892537  0.06668759  0.45113208    -0.28700
C1086       C  0.98438438  0.05160586  0.44108484     0.06900
C1087       C  0.50241284  0.05958951  0.40315545    -0.27300
H1088       H  0.94209308  0.09886697  0.46337212     0.11600
H1089       H  0.94951044  0.14163397  0.41898337     0.12700
H1090       H  0.53737999  0.08149929  0.33126551     0.11800
H1091       H  0.54555977  0.12498941  0.28764053     0.11100
H1092       H  0.53661598  0.16713698  0.27531011     0.16500
H1093       H  0.97380030  0.17602631  0.35797309     0.11300
H1094       H  0.95490100  0.06043815  0.48025074     0.15200
H1095       H  0.51462374  0.04816560  0.39565328     0.15000
C1096       C  0.95298275  0.27630719  0.38335167    -0.17900
C1097       C  0.94925905  0.29616933  0.41023942    -0.20000
C1098       C  0.97300537  0.32540275  0.41705184     0.20600
C1099       C  0.00052916  0.33496477  0.39550458    -0.03000
C1100       C  0.00418376  0.31501141  0.36789154    -0.06000
C1101       C  0.98042172  0.28539922  0.36248811     0.20900
C1102       C  0.03178329  0.32447056  0.34653732     0.19000
C1103       C  0.55530171  0.35393551  0.35260555    -0.17500
C1104       C  0.55179361  0.37358831  0.38040015    -0.19700
C1105       C  0.02462042  0.36419916  0.40238896     0.20500
C1106       C  0.02138431  0.38324655  0.43202816    -0.32700
C1107       C  0.99430465  0.37364727  0.45472062     0.01200
C1108       C  0.96995837  0.34489670  0.44604294    -0.24100
C1109       C  0.98467554  0.26523766  0.33700764    -0.28700
C1110       C  0.01217790  0.27431710  0.31623487     0.06900
C1111       C  0.03549646  0.30410193  0.32032519    -0.27300
H1112       H  0.93446617  0.25368811  0.37926853     0.11600
H1113       H  0.92796065  0.28848458  0.42636920     0.12700
H1114       H  0.57659951  0.36164660  0.33643300     0.11800
H1115       H  0.57046966  0.39603937  0.38510989     0.11100
H1116       H  0.04017232  0.40535408  0.43803571     0.16500
H1117       H  0.94899025  0.33719649  0.46322231     0.12400
H1118       H  0.96663111  0.24229982  0.33345628     0.15200
H1119       H  0.55669761  0.31106545  0.30425019     0.15000
C1120       C  0.54152242  0.20157534  0.03032519    -0.17900
C1121       C  0.54284604  0.20208952  0.07647086    -0.20000
C1122       C  0.53084187  0.21661992  0.10092522     0.20600
C1123       C  0.01749927  0.23087408  0.07857437    -0.03000
C1124       C  0.01616719  0.23035911  0.03200173    -0.06000
C1125       C  0.52814532  0.21555730  0.00776173     0.20900
C1126       C  0.00252373  0.24434921  0.00978316     0.19000
C1127       C  0.99072472  0.25908120  0.03416359    -0.17500
C1128       C  0.99200966  0.25955874  0.08022267    -0.19700
C1129       C  0.00516584  0.24536252  0.10271667     0.20500
C1130       C  0.00581289  0.24511831  0.14892180    -0.32700
C1131       C  0.01913966  0.23105689  0.17179419     0.01200
C1132       C  0.53180193  0.21700656  0.14726898    -0.24100
C1133       C  0.52628507  0.21474192  0.96147462    -0.28700
C1134       C  0.01211296  0.22809451  0.93891031     0.06900
C1135       C  0.00042077  0.24296576  0.96364083    -0.27300
H1136       H  0.55081433  0.19006905  0.01228102     0.11600
H1137       H  0.55314373  0.19098050  0.09304798     0.12700
H1138       H  0.98027239  0.27004639  0.01760941     0.11800
H1139       H  0.98253577  0.27089389  0.09827632     0.11100
H1140       H  0.99519801  0.25532348  0.16696154     0.16500
H1141       H  0.54252414  0.20643182  0.16414750     0.12400
H1142       H  0.53591783  0.20369593  0.94309277     0.15200
H1143       H  0.98886235  0.25282404  0.94719002     0.15000
C1144       C  0.80967882  0.40995321  0.71612619    -0.17900
C1145       C  0.78692801  0.40769012  0.74375876    -0.20000
C1146       C  0.78511760  0.43317082  0.75441417     0.20600
C1147       C  0.80668423  0.46127546  0.73722461    -0.03000
C1148       C  0.82969532  0.46356522  0.70942548    -0.06000
C1149       C  0.83105627  0.43775105  0.69853164     0.20900
C1150       C  0.85105489  0.49163959  0.69203391     0.19000
C1151       C  0.84938941  0.01715652  0.70283072    -0.17500
C1152       C  0.82654763  0.01487662  0.73009059    -0.19700
C1153       C  0.80504084  0.48706352  0.74728797     0.20500
C1154       C  0.78174157  0.48456940  0.77392500    -0.32700
C1155       C  0.76018979  0.45673008  0.79107032     0.01200
C1156       C  0.76201900  0.43109372  0.78146749    -0.24100
C1157       C  0.85332325  0.44007543  0.66948331    -0.28700
C1158       C  0.87429146  0.46791268  0.65096197     0.06900
C1159       C  0.87328259  0.49365947  0.66332824    -0.27300
H1160       H  0.81042395  0.38990536  0.70825058     0.11600
H1161       H  0.77061629  0.38592979  0.75659676     0.12700
H1162       H  0.86560329  0.03888696  0.68978017     0.11800
H1163       H  0.82561473  0.03487788  0.73754804     0.11100
H1164       H  0.78011386  0.00424713  0.78109250     0.16500
H1165       H  0.74513937  0.40955740  0.79428579     0.12400
H1166       H  0.85388581  0.42006991  0.66058319     0.15200
H1167       H  0.88922876  0.51524071  0.64950316     0.15000
C1168       C  0.66527562  0.50713940  0.69684346    -0.17900
C1169       C  0.64446381  0.51047336  0.67188284    -0.20000
C1170       C  0.61406840  0.49452713  0.68299341     0.20600
C1171       C  0.60453493  0.47557742  0.72020762    -0.03000
C1172       C  0.62552979  0.47194685  0.74512502    -0.06000
C1173       C  0.65597790  0.48764512  0.73309067     0.20900
C1174       C  0.61601431  0.45227565  0.78152680     0.19000
C1175       C  0.58565509  0.43697314  0.79327366    -0.17500
C1176       C  0.56483530  0.44073986  0.76872382    -0.19700
C1177       C  0.57397656  0.45973597  0.73185604     0.20500
C1178       C  0.55308832  0.46248230  0.70557609    -0.32700
C1179       C  0.56245005  0.48020850  0.66731320     0.01200
C1180       C  0.59296474  0.49653171  0.65671071    -0.24100
C1181       C  0.67661259  0.48336601  0.75712598    -0.28700
C1182       C  0.66734581  0.46326854  0.79279800     0.06900
C1183       C  0.63697249  0.44799521  0.80509179    -0.27300
H1184       H  0.68860676  0.51945879  0.68736447     0.11600
H1185       H  0.65209359  0.52525143  0.64354671     0.12700
H1186       H  0.57793800  0.42177616  0.82110738     0.11800
H1187       H  0.54147686  0.42829843  0.77804172     0.11100
H1188       H  0.52948702  0.44962503  0.71346481     0.16500
H1189       H  0.60020107  0.51030323  0.62726054     0.12400
H1190       H  0.70002554  0.49580454  0.74805058     0.15200
H1191       H  0.62956707  0.43237533  0.83242663     0.15000
C1192       C  0.83072446  0.52119324  0.37970275    -0.17900
C1193       C  0.85241832  0.52203335  0.40804458    -0.20000
C1194       C  0.85449666  0.49630808  0.41500598     0.20600
C1195       C  0.83496039  0.46960500  0.39254404    -0.03000
C1196       C  0.81324174  0.46884397  0.36349696    -0.06000
C1197       C  0.81089430  0.49468701  0.35761222     0.20900
C1198       C  0.79342706  0.44209010  0.34124182     0.19000
C1199       C  0.79575937  0.41644883  0.34799895    -0.17500
C1200       C  0.81707853  0.41712512  0.37720895    -0.19700
C1201       C  0.83666373  0.44352755  0.39986211     0.20500
C1202       C  0.85745032  0.44418776  0.43039242    -0.32700
C1203       C  0.87670397  0.47068495  0.45344880     0.01200
C1204       C  0.87534921  0.49674246  0.44484604    -0.24100
C1205       C  0.78824992  0.49337242  0.33071332    -0.28700
C1206       C  0.76809058  0.46671533  0.30918606     0.06900
C1207       C  0.77112221  0.44129300  0.31374414    -0.27300
H1208       H  0.82924753  0.54122813  0.37542531     0.11600
H1209       H  0.86729146  0.54269949  0.42504410     0.12700
H1210       H  0.78075618  0.39571450  0.33125119     0.11800
H1211       H  0.81802234  0.39687926  0.38245184     0.11100
H1212       H  0.85831035  0.42398560  0.43664213     0.16500
H1213       H  0.88992877  0.51727172  0.46240959     0.12400
H1214       H  0.78581718  0.51292351  0.32715880     0.15200
H1215       H  0.75534485  0.42065175  0.29740605     0.15000
C1216       C  0.59711240  0.49842906  0.33162915    -0.17900
C1217       C  0.61914949  0.49727901  0.30620743    -0.20000
C1218       C  0.63489813  0.48380224  0.32289343     0.20600
C1219       C  0.62836934  0.47144768  0.36567152    -0.03000
C1220       C  0.60652607  0.47305977  0.39156610    -0.06000
C1221       C  0.59063211  0.48646779  0.37445505     0.20900
C1222       C  0.60081619  0.46146503  0.43475877     0.19000
C1223       C  0.61616732  0.44762543  0.45135370    -0.17500
C1224       C  0.63733397  0.44554082  0.42547489    -0.19700
C1225       C  0.64375803  0.45757904  0.38277226     0.20500
C1226       C  0.66535149  0.45597210  0.35702928    -0.32700
C1227       C  0.67255430  0.46864022  0.31451456     0.01200
C1228       C  0.65710275  0.48255760  0.29771366    -0.24100
C1229       C  0.56887938  0.48792097  0.40070541    -0.28700
C1230       C  0.56374105  0.47702765  0.44425185     0.06900
C1231       C  0.57999247  0.46402511  0.46087055    -0.27300
H1232       H  0.58529347  0.50891171  0.31788035     0.11600
H1233       H  0.62382646  0.50687903  0.27342062     0.12700
H1234       H  0.61180529  0.43841506  0.48440235     0.11800
H1235       H  0.64890587  0.43475341  0.43904775     0.11100
H1236       H  0.67635145  0.44449001  0.37014761     0.16500
H1237       H  0.66254146  0.49272931  0.26530527     0.12400
H1238       H  0.55664525  0.49821664  0.38782256     0.15200
H1239       H  0.57612043  0.45542898  0.49430590     0.15000
C1240       C  0.69867985  0.49491055  0.02784699    -0.17900
C1241       C  0.69876905  0.49538826  0.07397829    -0.20000
C1242       C  0.70513123  0.47606553  0.09808364     0.20600
C1243       C  0.71123138  0.45588441  0.07547906    -0.03000
C1244       C  0.71109462  0.45536931  0.02885823    -0.06000
C1245       C  0.70490391  0.47506494  0.00499072     0.20900
C1246       C  0.71738964  0.43533447  0.00618637     0.19000
C1247       C  0.72340380  0.41577872  0.03034610    -0.17500
C1248       C  0.72360829  0.41633517  0.07651483    -0.19700
C1249       C  0.71776493  0.43643533  0.09940679     0.20500
C1250       C  0.71862490  0.43763075  0.14572993    -0.32700
C1251       C  0.71287381  0.45792206  0.16852731     0.01200
C1252       C  0.70588019  0.47686476  0.14434666    -0.24100
C1253       C  0.70518565  0.47469242  0.95871746    -0.28700
C1254       C  0.71150113  0.45482978  0.93571527     0.06900
C1255       C  0.71761652  0.43523805  0.95982104    -0.27300
H1256       H  0.69383575  0.51015571  0.01002887     0.11600
H1257       H  0.69402507  0.51101215  0.09081381     0.12700
H1258       H  0.72814487  0.40015297  0.01351637     0.11800
H1259       H  0.72853658  0.40115146  0.09432916     0.11100
H1260       H  0.72370766  0.42273735  0.16408212     0.16500
H1261       H  0.70175773  0.49280325  0.16156280     0.12400
H1262       H  0.70087518  0.49020039  0.94056213     0.15200
H1263       H  0.72219189  0.41966240  0.94246306     0.15000
C1264       C  0.87022217  0.39563576  0.76815627    -0.17900
C1265       C  0.84642125  0.37462604  0.79402430    -0.20000
C1266       C  0.83150974  0.34408141  0.78303908     0.20600
C1267       C  0.84091335  0.33468407  0.74574938    -0.03000
C1268       C  0.86468518  0.35590099  0.71936908    -0.06000
C1269       C  0.87945726  0.38655859  0.73060729     0.20900
C1270       C  0.87327981  0.34644521  0.68128949     0.19000
C1271       C  0.85868432  0.31594489  0.67049821    -0.17500
C1272       C  0.83549671  0.29494433  0.69693273    -0.19700
C1273       C  0.82628526  0.30411161  0.73434420     0.20500
C1274       C  0.80233772  0.28321669  0.75998902    -0.32700
C1275       C  0.79187255  0.29230684  0.79632748     0.01200
C1276       C  0.80700357  0.32287200  0.80802967    -0.24100
C1277       C  0.90268710  0.40755121  0.70352568    -0.28700
C1278       C  0.91061463  0.39824496  0.66476488     0.06900
C1279       C  0.89592196  0.36765456  0.65413417    -0.27300
H1280       H  0.88116118  0.41906853  0.77721773     0.11600
H1281       H  0.83953838  0.38231104  0.82247651     0.12700
H1282       H  0.86508923  0.30834287  0.64143763     0.11800
H1283       H  0.82445506  0.27153118  0.68772255     0.11100
H1284       H  0.79164478  0.25974427  0.75124211     0.16500
H1285       H  0.79920333  0.33031245  0.83571552     0.12400
H1286       H  0.91369809  0.43117191  0.71153418     0.15200
H1287       H  0.90200181  0.36038580  0.62436703     0.15000
C1288       C  0.68413692  0.13338417  0.73033321    -0.17900
C1289       C  0.66312961  0.11038506  0.70360818    -0.20000
C1290       C  0.63533749  0.10795362  0.69520900     0.20600
C1291       C  0.62817907  0.12820440  0.71514881    -0.03000
C1292       C  0.64922980  0.15118177  0.74259540    -0.06000
C1293       C  0.67755314  0.15409840  0.74946904     0.20900
C1294       C  0.64223834  0.17168865  0.76219057     0.19000
C1295       C  0.61411839  0.16872688  0.75465726    -0.17500
C1296       C  0.59341588  0.14619863  0.72692475    -0.19700
C1297       C  0.60038025  0.12609006  0.70658771     0.20500
C1298       C  0.58052824  0.10464324  0.67660784    -0.32700
C1299       C  0.58807238  0.08521099  0.65515315     0.01200
C1300       C  0.61509382  0.08636039  0.66587412    -0.24100
C1301       C  0.69895779  0.17798857  0.77469706    -0.28700
C1302       C  0.69222565  0.19861524  0.79379422     0.06900
C1303       C  0.66373187  0.19512937  0.78816561    -0.27300
H1304       H  0.70569470  0.13519884  0.73558883     0.11600
H1305       H  0.66888212  0.09490934  0.68868250     0.12700
H1306       H  0.60834995  0.18419608  0.76953603     0.11800
H1307       H  0.57212989  0.14481462  0.72080472     0.11100
H1308       H  0.55962702  0.10373232  0.66899043     0.16500
H1309       H  0.62108489  0.07137209  0.64984475     0.12400
H1310       H  0.72095754  0.18070529  0.77943127     0.15200
H1311       H  0.65868848  0.21116124  0.80297938     0.15000
C1312       C  0.84412118  0.29693726  0.39992193    -0.17900
C1313       C  0.86747625  0.31787228  0.42610309    -0.20000
C1314       C  0.87999739  0.34856349  0.41792028     0.20600
C1315       C  0.86965697  0.35833572  0.38210032    -0.03000
C1316       C  0.84577396  0.33716769  0.35597790    -0.06000
C1317       C  0.83276358  0.30638125  0.36540384     0.20900
C1318       C  0.83435594  0.34680287  0.32137960     0.19000
C1319       C  0.84769583  0.37755608  0.31231948    -0.17500
C1320       C  0.87161342  0.39856925  0.33797916    -0.19700
C1321       C  0.88248975  0.38923079  0.37334776     0.20500
C1322       C  0.90518950  0.41012812  0.40110103    -0.32700
C1323       C  0.91431529  0.40035275  0.43812445     0.01200
C1324       C  0.90196926  0.36961651  0.44589214    -0.24100
C1325       C  0.80805208  0.28553731  0.34107204    -0.28700
C1326       C  0.79552277  0.29485866  0.30789438     0.06900
C1327       C  0.80927935  0.32556153  0.29746229    -0.27300
H1328       H  0.83445142  0.27334985  0.40735438     0.11600
H1329       H  0.87540597  0.31007228  0.45324349     0.12700
H1330       H  0.83928689  0.38540048  0.28588454     0.11800
H1331       H  0.88111945  0.42217833  0.33082209     0.11100
H1332       H  0.91456807  0.43390220  0.39536652     0.16500
H1333       H  0.90908450  0.36209274  0.47435830     0.12400
H1334       H  0.79816768  0.26192302  0.34856029     0.15200
H1335       H  0.79983390  0.33299273  0.27192577     0.15000
C1336       C  0.61693893  0.17133084  0.35592549    -0.17900
C1337       C  0.59630847  0.14895996  0.38404618    -0.20000
C1338       C  0.60360363  0.12949154  0.40583444     0.20600
C1339       C  0.63200545  0.13261271  0.39912269    -0.03000
C1340       C  0.65305107  0.15556008  0.37140064    -0.06000
C1341       C  0.64544486  0.17496671  0.34956813     0.20900
C1342       C  0.68182063  0.15930307  0.36601109     0.19000
C1343       C  0.68905951  0.13972487  0.38748781    -0.17500
C1344       C  0.66808937  0.11675733  0.41438611    -0.19700
C1345       C  0.63960109  0.11315010  0.42069041     0.20500
C1346       C  0.61888893  0.09086791  0.44900426    -0.32700
C1347       C  0.59082059  0.08812459  0.45711035     0.01200
C1348       C  0.58327990  0.10741057  0.43491257    -0.24100
C1349       C  0.66661342  0.19785438  0.32229567    -0.28700
C1350       C  0.69546434  0.20199760  0.31759087     0.06900
C1351       C  0.70291266  0.18269091  0.33955678    -0.27300
H1352       H  0.61070678  0.18603303  0.33955441     0.11600
H1353       H  0.57467240  0.14700277  0.38896674     0.12700
H1354       H  0.71100783  0.14223284  0.38359235     0.11800
H1355       H  0.67429833  0.10203409  0.43073226     0.11100
H1356       H  0.62511286  0.07634646  0.46597613     0.16500
H1357       H  0.56177540  0.10557959  0.44077263     0.12400
H1358       H  0.66097025  0.21290262  0.30556628     0.15200
H1359       H  0.72516193  0.18588261  0.33580366     0.15000
C1360       C  0.71331483  0.19580445  0.03153758    -0.17900
C1361       C  0.71351109  0.19600603  0.07766097    -0.20000
C1362       C  0.72311906  0.22279971  0.10086284     0.20600
C1363       C  0.73219907  0.24959199  0.07735711    -0.03000
C1364       C  0.73202444  0.24939311  0.03075012    -0.06000
C1365       C  0.72276798  0.22240186  0.00780628     0.20900
C1366       C  0.74163918  0.27627403  0.00717251     0.19000
C1367       C  0.75062497  0.30294025  0.03042002    -0.17500
C1368       C  0.75080769  0.30314017  0.07659124    -0.19700
C1369       C  0.74197530  0.27667048  0.10036921     0.20500
C1370       C  0.74315743  0.27687469  0.14667424    -0.32700
C1371       C  0.73458095  0.25032576  0.17035554     0.01200
C1372       C  0.72429304  0.22333346  0.14710336    -0.24100
C1373       C  0.72367120  0.22255407  0.96157870    -0.28700
C1374       C  0.73388504  0.24936322  0.93774766     0.06900
C1375       C  0.74255272  0.27609741  0.96085046    -0.27300
H1376       H  0.70606983  0.17487351  0.01441169     0.11600
H1377       H  0.70641355  0.17523039  0.09519638     0.12700
H1378       H  0.75788392  0.32374354  0.01288243     0.11800
H1379       H  0.75820305  0.32409724  0.09371369     0.11100
H1380       H  0.75082401  0.29770257  0.16433631     0.16500
H1381       H  0.71800447  0.20284226  0.16498940     0.12400
H1382       H  0.71721986  0.20188391  0.94414453     0.15200
H1383       H  0.75005450  0.29674932  0.94274033     0.15000
C1384       C  0.71834082  0.72697555  0.29073744     0.03100
C1385       C  0.74456632  0.74913840  0.31080286    -0.13100
C1386       C  0.76737528  0.77233309  0.28585193     0.00600
C1387       C  0.76346075  0.77311290  0.24007379    -0.11600
C1388       C  0.73736729  0.75080710  0.21924812     0.03100
C1389       C  0.71474422  0.72800566  0.24505426    -0.11000
H1390       H  0.74705206  0.74830792  0.34617146     0.08700
H1391       H  0.78130993  0.79027846  0.22038503     0.06200
H1392       H  0.69456033  0.71069491  0.22954479     0.06000
C1393       C  0.71547436  0.72423282  0.81877518     0.03100
C1394       C  0.74099657  0.74612348  0.79703556    -0.13100
C1395       C  0.76444835  0.76982560  0.82042526     0.00600
C1396       C  0.76159757  0.77126424  0.86650380    -0.11600
C1397       C  0.73595293  0.74926575  0.88879598     0.03100
C1398       C  0.71285558  0.72604936  0.86437821    -0.11000
H1399       H  0.74228780  0.74463050  0.76156688     0.08700
H1400       H  0.77980886  0.78871365  0.88528727     0.06200
H1401       H  0.69301376  0.70897325  0.88091601     0.06000
C1402       C  0.74225398  0.96493700  0.28548671     0.03100
C1403       C  0.73900481  0.96041407  0.23976770    -0.13100
C1404       C  0.71496311  0.96011089  0.21750152     0.00600
C1405       C  0.69341943  0.96297184  0.24203876    -0.11600
C1406       C  0.69605825  0.96696089  0.28807819     0.03100
C1407       C  0.72108229  0.96863374  0.30915131    -0.11000
H1408       H  0.75584750  0.95838155  0.22143422     0.08700
H1409       H  0.67423502  0.96139473  0.22520013     0.06200
H1410       H  0.72423649  0.97274469  0.34429912     0.06000
C1411       C  0.73475554  0.95463587  0.81639422     0.03100
C1412       C  0.73405565  0.95305941  0.86268620    -0.13100
C1413       C  0.71143024  0.95452579  0.88654509     0.00600
C1414       C  0.68923225  0.95699954  0.86325161    -0.11600
C1415       C  0.68966905  0.95856714  0.81700730     0.03100
C1416       C  0.71248546  0.95718858  0.79393253    -0.11000
H1417       H  0.75180277  0.95201901  0.88004397     0.08700
H1418       H  0.67189686  0.95835824  0.88125204     0.06200
H1419       H  0.71322921  0.95844845  0.75824793     0.06000
C1420       C  0.01621799  0.75194115  0.29145813     0.03100
C1421       C  0.01297476  0.72666693  0.31344449    -0.13100
C1422       C  0.01217635  0.70278667  0.29011392     0.00600
C1423       C  0.01504691  0.70477316  0.24392493    -0.11600
C1424       C  0.01880474  0.73026938  0.22112009     0.03100
C1425       C  0.02001329  0.75407050  0.24561850    -0.11000
H1426       H  0.01056135  0.72553190  0.34898855     0.08700
H1427       H  0.01272935  0.68574212  0.22566288     0.06200
H1428       H  0.02281131  0.77389478  0.22911374     0.06000
C1429       C  0.00314008  0.74625310  0.81999675     0.03100
C1430       C  0.00892766  0.74923706  0.86538133    -0.13100
C1431       C  0.00867023  0.72586805  0.88980477     0.00600
C1432       C  0.00369426  0.69982398  0.86725146    -0.11600
C1433       C  0.99897034  0.69698339  0.82128788     0.03100
C1434       C  0.99865234  0.72043804  0.79822754    -0.11000
H1435       H  0.01299000  0.76959548  0.88160359     0.08700
H1436       H  0.00243723  0.68127386  0.88562205     0.06200
H1437       H  0.99533138  0.71900912  0.76285959     0.06000
O1438       O  0.91627069  0.49634802  0.50418806    -0.88200
C1439       C  0.56901876  0.56527577  0.61935206     1.11800
O1440       O  0.95400479  0.97469166  0.55290396    -1.36000
O1441       O  0.54911105  0.56967100  0.50555011    -0.89700
O1442       O  0.89391848  0.94645187  0.50207764    -0.90400
O1443       O  0.95707498  0.94609899  0.46007368    -0.79200
O1444       O  0.98249948  0.53372938  0.51232244    -1.01300
C1445       C  0.54234887  0.97942319  0.47408575     1.21900
O1446       O  0.98771916  0.94636100  0.55359375    -1.36200
Mn1447     Mn  0.98542334  0.97640722  0.60146511     1.82100
O1448       O  0.51930556  0.97927119  0.46091693    -0.78300
O1449       O  0.57611242  0.54684358  0.50559199    -0.87700
C1450       C  0.54065005  0.97957111  0.63551873     1.12900
C1451       C  0.57056185  0.56668621  0.49107891     1.07700
O1452       O  0.95443075  0.94443572  0.64562667    -0.79200
O1453       O  0.51616692  0.50880487  0.55434734    -1.32900
O1454       O  0.92868046  0.91537436  0.59365946    -0.98400
C1455       C  0.99214300  0.89272414  0.48959102     1.06400
Mn1456     Mn  0.55931906  0.51370895  0.55473240     1.48600
O1457       O  0.96643612  0.88662504  0.50320682    -0.87600
Mn1458     Mn  0.91287772  0.93299937  0.55177271     1.49600
O1459       O  0.91551756  0.99557579  0.60259731    -0.91500
C1460       C  0.98377114  0.52974904  0.47292258     1.19600
C1461       C  0.89573302  0.96984101  0.61646349     1.11600
Mn1462     Mn  0.98678362  0.97719981  0.50579607     1.81000
O1463       O  0.54570063  0.98024289  0.59618667    -0.96700
Mn1464     Mn  0.94875959  0.51284742  0.55352720     1.49300
C1465       C  0.89703775  0.97112984  0.48834821     1.08100
Mn1466     Mn  0.52886476  0.94652800  0.55490770     1.49900
C1467       C  0.99054669  0.89206711  0.61773721     1.11100
O1468       O  0.92973149  0.91616542  0.51030205    -1.02500
O1469       O  0.57520903  0.54619030  0.60393659    -0.92100
C1470       C  0.93476216  0.92176954  0.47106392     1.22300
O1471       O  0.54628384  0.98011670  0.51370275    -1.02800
O1472       O  0.54791704  0.56865530  0.60448300    -0.90200
O1473       O  0.51516267  0.91391015  0.60431103    -0.89800
O1474       O  0.89282365  0.94563041  0.60096294    -0.89900
Mn1475     Mn  0.51590560  0.54989541  0.55433505     1.47900
O1476       O  0.51647714  0.97745799  0.64720683    -0.78300
C1477       C  0.93246096  0.92020105  0.63323874     1.15400
O1478       O  0.98609221  0.50782206  0.46107085    -0.77100
O1479       O  0.98403854  0.50686738  0.64677998    -0.76700
Mn1480     Mn  0.94946286  0.90270670  0.55229673     1.51100
O1481       O  0.51623593  0.91395534  0.50553417    -0.89000
O1482       O  0.98195424  0.53335353  0.59522938    -0.96600
O1483       O  0.96536364  0.88591624  0.60170599    -0.91600
C1484       C  0.98244981  0.52924410  0.63470525     1.13200
C1485       C  0.51994929  0.59219648  0.76925853    -0.17900
C1486       C  0.52264611  0.61600952  0.79487660    -0.20000
C1487       C  0.00682995  0.63059565  0.78367162     0.20600
C1488       C  0.98806124  0.62097231  0.74628803    -0.03000
C1489       C  0.98566309  0.59722311  0.72007811    -0.06000
C1490       C  0.00160674  0.58265660  0.73168012     0.20900
C1491       C  0.96766128  0.58838907  0.68189398     0.19000
C1492       C  0.95168708  0.60278395  0.67076680    -0.17500
C1493       C  0.95366502  0.62590345  0.69709515    -0.19700
C1494       C  0.97194534  0.63530633  0.73469356     0.20500
C1495       C  0.97470877  0.65910685  0.76039865    -0.32700
C1496       C  0.99416129  0.66970423  0.79695748     0.01200
C1497       C  0.00988058  0.65495419  0.80863389    -0.24100
C1498       C  0.49937592  0.55929312  0.70497741    -0.28700
C1499       C  0.98213874  0.55103903  0.66616388     0.06900
C1500       C  0.96629791  0.56566301  0.65504648    -0.27300
H1501       H  0.53256169  0.58149253  0.77853581     0.11600
H1502       H  0.53724603  0.62312210  0.82335370     0.12700
H1503       H  0.93772827  0.59621950  0.64160349     0.11800
H1504       H  0.94117448  0.63671853  0.68768403     0.11100
H1505       H  0.96178019  0.66955198  0.75155085     0.16500
H1506       H  0.52514217  0.66291983  0.83635608     0.12400
H1507       H  0.51204001  0.54846331  0.71328809     0.15200
H1508       H  0.95302055  0.55943684  0.62515749     0.15000
C1509       C  0.04556824  0.86897691  0.73021217    -0.17900
C1510       C  0.04717251  0.84879863  0.75933445    -0.20000
C1511       C  0.02261799  0.81983354  0.76474184     0.20600
C1512       C  0.99594751  0.81141453  0.74129484    -0.03000
C1513       C  0.99413145  0.83202564  0.71267531    -0.06000
C1514       C  0.01919195  0.86082771  0.70671688     0.20900
C1515       C  0.96750348  0.82351096  0.68915415     0.19000
C1516       C  0.94290894  0.79459536  0.69459115    -0.17500
C1517       C  0.94485041  0.77404597  0.72239319    -0.19700
C1518       C  0.97131390  0.78215609  0.74557155     0.20500
C1519       C  0.97380446  0.76131097  0.77211951    -0.32700
C1520       C  0.00040381  0.76937691  0.79500503     0.01200
C1521       C  0.02452104  0.79884170  0.79204301    -0.24100
C1522       C  0.01767836  0.88065247  0.67653535    -0.28700
C1523       C  0.99131285  0.87219700  0.65247782     0.06900
C1524       C  0.96615112  0.84373706  0.65971559    -0.27300
H1525       H  0.06513886  0.89085192  0.72558678     0.11600
H1526       H  0.06784726  0.85563809  0.77688927     0.12700
H1527       H  0.92231163  0.78770326  0.67675763     0.11800
H1528       H  0.92572229  0.75168993  0.72544515     0.11100
H1529       H  0.95515081  0.73860943  0.77469776     0.16500
H1530       H  0.04507073  0.80498965  0.80956645     0.12400
H1531       H  0.03721596  0.90249072  0.67126698     0.15200
H1532       H  0.94577251  0.83685418  0.64124447     0.15000
C1533       C  0.95695266  0.60556082  0.43522323    -0.17900
C1534       C  0.96121275  0.62996772  0.40991990    -0.20000
C1535       C  0.98079199  0.63956283  0.37383452     0.20600
C1536       C  0.99577035  0.62406508  0.36242555    -0.03000
C1537       C  0.99119119  0.59915240  0.38769418    -0.06000
C1538       C  0.97204117  0.59023194  0.42462977     0.20900
C1539       C  0.50624117  0.58361839  0.37664184     0.19000
C1540       C  0.52551364  0.59304163  0.34011995    -0.17500
C1541       C  0.53022265  0.61791462  0.31522798    -0.19700
C1542       C  0.51561944  0.63372818  0.32627939     0.20500
C1543       C  0.52080301  0.65926018  0.30235370    -0.32700
C1544       C  0.00622182  0.67510804  0.31405045     0.01200
C1545       C  0.98584955  0.66463032  0.34937833    -0.24100
C1546       C  0.96892472  0.56668635  0.45113256    -0.28700
C1547       C  0.98438395  0.55160495  0.44108448     0.06900
C1548       C  0.50241058  0.55958809  0.40315350    -0.27300
H1549       H  0.94209188  0.59886510  0.46337414     0.11600
H1550       H  0.94950792  0.64163173  0.41898572     0.12700
H1551       H  0.53737493  0.58149664  0.33126055     0.11800
H1552       H  0.54555295  0.62498604  0.28763521     0.11100
H1553       H  0.53660970  0.66713405  0.27530726     0.16500
H1554       H  0.97379684  0.67602432  0.35797499     0.11300
H1555       H  0.95490126  0.56043724  0.48025234     0.15200
H1556       H  0.51462157  0.54816439  0.39565055     0.15000
C1557       C  0.95297993  0.77630906  0.38334605    -0.17900
C1558       C  0.94925611  0.79617140  0.41023321    -0.20000
C1559       C  0.97300325  0.82540397  0.41704876     0.20600
C1560       C  0.00052802  0.83496503  0.39550517    -0.03000
C1561       C  0.00418284  0.81501150  0.36789285    -0.06000
C1562       C  0.98041987  0.78540009  0.36248629     0.20900
C1563       C  0.03178336  0.82446960  0.34654253     0.19000
C1564       C  0.55530184  0.85393398  0.35261268    -0.17500
C1565       C  0.55179344  0.87358690  0.38040656    -0.19700
C1566       C  0.02462005  0.86419859  0.40239260     0.20500
C1567       C  0.02138358  0.88324594  0.43203138    -0.32700
C1568       C  0.99430297  0.87364747  0.45472059     0.01200
C1569       C  0.96995597  0.84489786  0.44603966    -0.24100
C1570       C  0.98467366  0.76523824  0.33700654    -0.28700
C1571       C  0.01217692  0.77431665  0.31623747     0.06900
C1572       C  0.03549662  0.80410074  0.32033100    -0.27300
H1573       H  0.93446272  0.75369065  0.37926056     0.11600
H1574       H  0.92795700  0.78848739  0.42636012     0.12700
H1575       H  0.57660038  0.86164443  0.33644274     0.11800
H1576       H  0.57046998  0.89603743  0.38511840     0.11100
H1577       H  0.04017226  0.90535280  0.43804155     0.16500
H1578       H  0.94898718  0.83719830  0.46321632     0.12400
H1579       H  0.96662844  0.74230099  0.33345270     0.15200
H1580       H  0.55669777  0.81106378  0.30425758     0.15000
C1581       C  0.54151582  0.70157087  0.03032710    -0.17900
C1582       C  0.54284004  0.70208572  0.07647263    -0.20000
C1583       C  0.53083777  0.71661802  0.10092673     0.20600
C1584       C  0.01749658  0.73087303  0.07857597    -0.03000
C1585       C  0.01616386  0.73035730  0.03200336    -0.06000
C1586       C  0.52813986  0.71555383  0.00776333     0.20900
C1587       C  0.00252096  0.74434785  0.00978450     0.19000
C1588       C  0.99072325  0.75908116  0.03416472    -0.17500
C1589       C  0.99200894  0.75955958  0.08022377    -0.19700
C1590       C  0.00516448  0.74536287  0.10271810     0.20500
C1591       C  0.00581206  0.74511929  0.14892326    -0.32700
C1592       C  0.01913775  0.73105688  0.17179584     0.01200
C1593       C  0.53179831  0.71700526  0.14727037    -0.24100
C1594       C  0.52627916  0.71473789  0.96147630    -0.28700
C1595       C  0.01210880  0.72809159  0.93891177     0.06900
C1596       C  0.00041738  0.74296367  0.96364218    -0.27300
H1597       H  0.55080641  0.69006308  0.01228299     0.11600
H1598       H  0.55313669  0.69097572  0.09305004     0.12700
H1599       H  0.98027141  0.77004679  0.01761032     0.11800
H1600       H  0.98253602  0.77089580  0.09827728     0.11100
H1601       H  0.99519816  0.75532556  0.16696303     0.16500
H1602       H  0.54251950  0.70642938  0.16414908     0.12400
H1603       H  0.53591119  0.70369099  0.94309494     0.15200
H1604       H  0.98885925  0.75282225  0.94719136     0.15000
C1605       C  0.80967973  0.90995259  0.71612886    -0.17900
C1606       C  0.78692867  0.90768915  0.74376113    -0.20000
C1607       C  0.78511726  0.93316953  0.75441509     0.20600
C1608       C  0.80668313  0.96127411  0.73722440    -0.03000
C1609       C  0.82969444  0.96356421  0.70942566    -0.06000
C1610       C  0.83105635  0.93775034  0.69853317     0.20900
C1611       C  0.85105325  0.99163854  0.69203312     0.19000
C1612       C  0.84939193  0.51715787  0.70283293    -0.17500
C1613       C  0.82655043  0.51487832  0.73009325    -0.19700
C1614       C  0.80503878  0.98706186  0.74728624     0.20500
C1615       C  0.78173927  0.98456740  0.77392266    -0.32700
C1616       C  0.76018829  0.95672820  0.79106913     0.01200
C1617       C  0.76201847  0.93109217  0.78146808    -0.24100
C1618       C  0.85332339  0.94007504  0.66948489    -0.28700
C1619       C  0.87429060  0.96791219  0.65096237     0.06900
C1620       C  0.87328105  0.99365873  0.66332761    -0.27300
H1621       H  0.81042567  0.88990496  0.70825428     0.11600
H1622       H  0.77061757  0.88592893  0.75659995     0.12700
H1623       H  0.86560644  0.53888843  0.68978325     0.11800
H1624       H  0.82561834  0.53487983  0.73755182     0.11100
H1625       H  0.78011694  0.50424935  0.78109600     0.16500
H1626       H  0.74513937  0.90955584  0.79428744     0.12400
H1627       H  0.85388668  0.92006965  0.66058556     0.15200
H1628       H  0.88922650  0.01523978  0.64950168     0.15000
C1629       C  0.66527445  0.00713698  0.69683794    -0.17900
C1630       C  0.64446219  0.01047032  0.67187741    -0.20000
C1631       C  0.61406718  0.99452565  0.68299062     0.20600
C1632       C  0.60453455  0.97557788  0.72020691    -0.03000
C1633       C  0.62552983  0.97194780  0.74512412    -0.06000
C1634       C  0.65597756  0.98764473  0.73308758     0.20900
C1635       C  0.61601508  0.95227849  0.78152811     0.19000
C1636       C  0.58565630  0.93697745  0.79327737    -0.17500
C1637       C  0.56483615  0.94074373  0.76872778    -0.19700
C1638       C  0.57397661  0.95973796  0.73185788     0.20500
C1639       C  0.55308785  0.96248390  0.70557854    -0.32700
C1640       C  0.56244865  0.98020830  0.66731386     0.01200
C1641       C  0.59296304  0.99653001  0.65670870    -0.24100
C1642       C  0.67661260  0.98336618  0.75712313    -0.28700
C1643       C  0.66734643  0.96327036  0.79279737     0.06900
C1644       C  0.63697348  0.94799840  0.80509298    -0.27300
H1645       H  0.68860529  0.01945526  0.68735703     0.11600
H1646       H  0.65209133  0.02524680  0.64353945     0.12700
H1647       H  0.57793980  0.92178197  0.82111283     0.11800
H1648       H  0.54147807  0.92830344  0.77804759     0.11100
H1649       H  0.52948693  0.94962779  0.71346931     0.16500
H1650       H  0.60019872  0.01030015  0.62725724     0.12400
H1651       H  0.70002526  0.99580369  0.74804599     0.15200
H1652       H  0.62956833  0.93237958  0.83242933     0.15000
C1653       C  0.83072310  0.02119317  0.37970112    -0.17900
C1654       C  0.85241699  0.02203335  0.40804304    -0.20000
C1655       C  0.85449529  0.99630807  0.41500483     0.20600
C1656       C  0.83495911  0.96960498  0.39254287    -0.03000
C1657       C  0.81324046  0.96884387  0.36349566    -0.06000
C1658       C  0.81089289  0.99468683  0.35761083     0.20900
C1659       C  0.79342587  0.94208997  0.34124056     0.19000
C1660       C  0.79575841  0.91644882  0.34799750    -0.17500
C1661       C  0.81707754  0.91712518  0.37720760    -0.19700
C1662       C  0.83666250  0.94352755  0.39986108     0.20500
C1663       C  0.85744891  0.94418779  0.43039178    -0.32700
C1664       C  0.87670235  0.97068489  0.45344841     0.01200
C1665       C  0.87534763  0.99674245  0.44484541    -0.24100
C1666       C  0.78824826  0.99337203  0.33071220    -0.28700
C1667       C  0.76808888  0.96671482  0.30918526     0.06900
C1668       C  0.77112082  0.94129264  0.31374311    -0.27300
H1669       H  0.82924611  0.04122794  0.37542354     0.11600
H1670       H  0.86729014  0.04269961  0.42504247     0.12700
H1671       H  0.78075532  0.89571445  0.33124952     0.11800
H1672       H  0.81802153  0.89687938  0.38245036     0.11100
H1673       H  0.85830897  0.92398554  0.43664157     0.16500
H1674       H  0.88992698  0.01727158  0.46240899     0.12400
H1675       H  0.78581538  0.01292310  0.32715764     0.15200
H1676       H  0.75534359  0.92065144  0.29740515     0.15000
C1677       C  0.59710925  0.99842628  0.33162942    -0.17900
C1678       C  0.61914593  0.99727584  0.30620719    -0.20000
C1679       C  0.63489502  0.98379954  0.32289315     0.20600
C1680       C  0.62836705  0.97144583  0.36567184    -0.03000
C1681       C  0.60652412  0.97305826  0.39156691    -0.06000
C1682       C  0.59062971  0.98646578  0.37445583     0.20900
C1683       C  0.60081499  0.96146430  0.43476008     0.19000
C1684       C  0.61616658  0.94762519  0.45135502    -0.17500
C1685       C  0.63733292  0.94554028  0.42547580    -0.19700
C1686       C  0.64375619  0.95757768  0.38277261     0.20500
C1687       C  0.66534935  0.95597044  0.35702919    -0.32700
C1688       C  0.67255145  0.96863778  0.31451387     0.01200
C1689       C  0.65709931  0.98255454  0.29771290    -0.24100
C1690       C  0.56887728  0.98791923  0.40070660    -0.28700
C1691       C  0.56373961  0.97702664  0.44425349     0.06900
C1692       C  0.57999149  0.96402460  0.46087220    -0.27300
H1693       H  0.58529001  0.00890860  0.31788062     0.11600
H1694       H  0.62382227  0.00687525  0.27341992     0.12700
H1695       H  0.61180513  0.93841539  0.48440405     0.11800
H1696       H  0.64890516  0.93475328  0.43904871     0.11100
H1697       H  0.67634972  0.94448883  0.37014772     0.16500
H1698       H  0.66253741  0.99272565  0.26530394     0.12400
H1699       H  0.55664280  0.99821445  0.38782362     0.15200
H1700       H  0.57611987  0.95542887  0.49430788     0.15000
C1701       C  0.69868021  0.99490944  0.02784583    -0.17900
C1702       C  0.69876885  0.99538681  0.07397709    -0.20000
C1703       C  0.70513034  0.97606366  0.09808258     0.20600
C1704       C  0.71123064  0.95588258  0.07547814    -0.03000
C1705       C  0.71109428  0.95536768  0.02885730    -0.06000
C1706       C  0.70490406  0.97506361  0.00498974     0.20900
C1707       C  0.71738899  0.93533259  0.00618548     0.19000
C1708       C  0.72340282  0.91577663  0.03034535    -0.17500
C1709       C  0.72360710  0.91633305  0.07651415    -0.19700
C1710       C  0.71776375  0.93643325  0.09940604     0.20500
C1711       C  0.71862315  0.93762841  0.14572928    -0.32700
C1712       C  0.71287167  0.95791957  0.16852650     0.01200
C1713       C  0.70587845  0.97686244  0.14434560    -0.24100
C1714       C  0.70518585  0.97469117  0.95871653    -0.28700
C1715       C  0.71150060  0.95482802  0.93571428     0.06900
C1716       C  0.71761569  0.93523605  0.95982006    -0.27300
H1717       H  0.69383655  0.01015486  0.01002760     0.11600
H1718       H  0.69402491  0.01101082  0.09081254     0.12700
H1719       H  0.72814370  0.90015079  0.01351577     0.11800
H1720       H  0.72853511  0.90114910  0.09432864     0.11100
H1721       H  0.72370565  0.92273495  0.16408160     0.16500
H1722       H  0.70175575  0.99280085  0.16156160     0.12400
H1723       H  0.70087594  0.99019942  0.94056148     0.15200
H1724       H  0.72219067  0.91966007  0.94246207     0.15000
C1725       C  0.87022304  0.89563431  0.76815882    -0.17900
C1726       C  0.84642237  0.87462429  0.79402695    -0.20000
C1727       C  0.83151087  0.84407980  0.78304111     0.20600
C1728       C  0.84091424  0.83468277  0.74575077    -0.03000
C1729       C  0.86468558  0.85589998  0.71937014    -0.06000
C1730       C  0.87945755  0.88655743  0.73060887     0.20900
C1731       C  0.87327973  0.84644456  0.68128963     0.19000
C1732       C  0.85868443  0.81594433  0.67049798    -0.17500
C1733       C  0.83549744  0.79494349  0.69693297    -0.19700
C1734       C  0.82628630  0.80411041  0.73434516     0.20500
C1735       C  0.80233905  0.78321523  0.75999009    -0.32700
C1736       C  0.79187389  0.79230512  0.79632883     0.01200
C1737       C  0.80700485  0.82287016  0.80803158    -0.24100
C1738       C  0.90268678  0.90755043  0.70352681    -0.28700
C1739       C  0.91061365  0.89824449  0.66476504     0.06900
C1740       C  0.89592121  0.86765423  0.65413389    -0.27300
H1741       H  0.88116204  0.91906680  0.77722067     0.11600
H1742       H  0.83953969  0.88230906  0.82247973     0.12700
H1743       H  0.86508903  0.80834261  0.64143665     0.11800
H1744       H  0.82445586  0.77153033  0.68772247     0.11100
H1745       H  0.79164623  0.75974293  0.75124282     0.16500
H1746       H  0.79920458  0.83031040  0.83571772     0.12400
H1747       H  0.91369766  0.93117085  0.71153569     0.15200
H1748       H  0.90200072  0.86038577  0.62436603     0.15000
C1749       C  0.68413987  0.63338489  0.73032913    -0.17900
C1750       C  0.66313242  0.61038575  0.70360426    -0.20000
C1751       C  0.63533957  0.60795319  0.69520760     0.20600
C1752       C  0.62818035  0.62820257  0.71515021    -0.03000
C1753       C  0.64923105  0.65117967  0.74259716    -0.06000
C1754       C  0.67755526  0.65409778  0.74946772     0.20900
C1755       C  0.64223872  0.67168508  0.76219535     0.19000
C1756       C  0.61411811  0.66872221  0.75466444    -0.17500
C1757       C  0.59341588  0.64619464  0.72693090    -0.19700
C1758       C  0.60038097  0.62608743  0.70659110     0.20500
C1759       C  0.58052916  0.60464138  0.67661017    -0.32700
C1760       C  0.58807399  0.58521046  0.65515298     0.01200
C1761       C  0.61509595  0.58636045  0.66587215    -0.24100
C1762       C  0.69895998  0.67798814  0.77469528    -0.28700
C1763       C  0.69222698  0.69861342  0.79379525     0.06900
C1764       C  0.66373225  0.69512578  0.78817025    -0.27300
H1765       H  0.70569821  0.63520066  0.73558242     0.11600
H1766       H  0.66888557  0.59491107  0.68867636     0.12700
H1767       H  0.60834907  0.68419045  0.76954543     0.11800
H1768       H  0.57212964  0.64481026  0.72081197     0.11100
H1769       H  0.55962773  0.60373011  0.66899393     0.16500
H1770       H  0.62108760  0.57137324  0.64984068     0.12400
H1771       H  0.72096047  0.68070611  0.77942706     0.15200
H1772       H  0.65868816  0.71115659  0.80298632     0.15000
C1773       C  0.84411973  0.79693713  0.39992428    -0.17900
C1774       C  0.86747419  0.81787237  0.42610608    -0.20000
C1775       C  0.87999569  0.84856349  0.41792214     0.20600
C1776       C  0.86965625  0.85833546  0.38210069    -0.03000
C1777       C  0.84577385  0.83716725  0.35597768    -0.06000
C1778       C  0.83276310  0.80638089  0.36540457     0.20900
C1779       C  0.83435673  0.84680219  0.32137788     0.19000
C1780       C  0.84769687  0.87755529  0.31231688    -0.17500
C1781       C  0.87161392  0.89856867  0.33797715    -0.19700
C1782       C  0.88248940  0.88923043  0.37334709     0.20500
C1783       C  0.90518883  0.91012801  0.40110052    -0.32700
C1784       C  0.91431380  0.90035286  0.43812507     0.01200
C1785       C  0.90196720  0.86961671  0.44589411    -0.24100
C1786       C  0.80805204  0.78553679  0.34107222    -0.28700
C1787       C  0.79552353  0.79485804  0.30789325     0.06900
C1788       C  0.80928054  0.82556075  0.29746008    -0.27300
H1789       H  0.83444971  0.77334985  0.40735748     0.11600
H1790       H  0.87540317  0.81007262  0.45324763     0.12700
H1791       H  0.83928859  0.88539946  0.28588079     0.11800
H1792       H  0.88112019  0.92217763  0.33081936     0.11100
H1793       H  0.91456777  0.93390189  0.39536509     0.16500
H1794       H  0.90908182  0.86209320  0.47436113     0.12400
H1795       H  0.79816734  0.76192265  0.34856119     0.15200
H1796       H  0.79983570  0.83299175  0.27192265     0.15000
C1797       C  0.61693928  0.67133150  0.35592467    -0.17900
C1798       C  0.59630872  0.64896028  0.38404487    -0.20000
C1799       C  0.60360409  0.62949204  0.40583324     0.20600
C1800       C  0.63200599  0.63261340  0.39912160    -0.03000
C1801       C  0.65305153  0.65556080  0.37139963    -0.06000
C1802       C  0.64544529  0.67496749  0.34956741     0.20900
C1803       C  0.68182104  0.65930369  0.36600979     0.19000
C1804       C  0.68905998  0.63972545  0.38748621    -0.17500
C1805       C  0.66808998  0.61675801  0.41438468    -0.19700
C1806       C  0.63960176  0.61315084  0.42068925     0.20500
C1807       C  0.61888975  0.59086876  0.44900320    -0.32700
C1808       C  0.59082142  0.58812532  0.45710936     0.01200
C1809       C  0.58328038  0.60741098  0.43491130    -0.24100
C1810       C  0.66661381  0.69785521  0.32229500    -0.28700
C1811       C  0.69546463  0.70199822  0.31758988     0.06900
C1812       C  0.70291296  0.68269146  0.33955543    -0.27300
H1813       H  0.61070710  0.68603361  0.33955366     0.11600
H1814       H  0.57467241  0.64700266  0.38896486     0.12700
H1815       H  0.71100826  0.64223335  0.38359042     0.11800
H1816       H  0.67429897  0.60203474  0.43073070     0.11100
H1817       H  0.62511384  0.57634734  0.46597516     0.16500
H1818       H  0.56177586  0.60557970  0.44077106     0.12400
H1819       H  0.66097068  0.71290348  0.30556584     0.15200
H1820       H  0.72516216  0.68588304  0.33580200     0.15000
C1821       C  0.71331581  0.69580376  0.03153737    -0.17900
C1822       C  0.71351227  0.69600543  0.07766065    -0.20000
C1823       C  0.72312027  0.72279918  0.10086238     0.20600
C1824       C  0.73220022  0.74959143  0.07735662    -0.03000
C1825       C  0.73202528  0.74939244  0.03074977    -0.06000
C1826       C  0.72276874  0.72240108  0.00780605     0.20900
C1827       C  0.74163985  0.77627329  0.00717211     0.19000
C1828       C  0.75062595  0.80293967  0.03041945    -0.17500
C1829       C  0.75080894  0.80313964  0.07659060    -0.19700
C1830       C  0.74197659  0.77667003  0.10036860     0.20500
C1831       C  0.74315873  0.77687428  0.14667353    -0.32700
C1832       C  0.73458207  0.75032534  0.17035474     0.01200
C1833       C  0.72429416  0.72333297  0.14710282    -0.24100
C1834       C  0.72367184  0.72255324  0.96157865    -0.28700
C1835       C  0.73388550  0.74936227  0.93774763     0.06900
C1836       C  0.74255320  0.77609655  0.96085015    -0.27300
H1837       H  0.70607076  0.67487269  0.01441145     0.11600
H1838       H  0.70641479  0.67522979  0.09519616     0.12700
H1839       H  0.75788486  0.82374280  0.01288184     0.11800
H1840       H  0.75820451  0.82409696  0.09371314     0.11100
H1841       H  0.75082537  0.79770215  0.16433560     0.16500
H1842       H  0.71800550  0.70284186  0.16498896     0.12400
H1843       H  0.71722057  0.70188297  0.94414445     0.15200
H1844       H  0.75005498  0.79674839  0.94273984     0.15000
loop_ 
_geom_bond_atom_site_label_1 
_geom_bond_atom_site_label_2 
_geom_bond_distance 
_geom_bond_site_symmetry_2 
_ccdc_geom_bond_type 
C1            C2   1.401       .  A
C1            C6   1.402       .  A
C1          C428   1.482       .  S
C2            C3   1.408       .  A
C2            H7   1.084       .  S
C3            C4   1.407       .  A
C3          C404   1.490       .  S
C4            C5   1.410       .  A
C4            H8   1.083       .  S
C5            C6   1.409       .  A
C5          C449   1.489       .  S
C6            H9   1.084       .  S
C10          C11   1.399       .  A
C10          C15   1.398       .  A
C10         C380   1.475       .  S
C11          C12   1.408       .  A
C11          H16   1.083       .  S
C12          C13   1.411       .  A
C12         C353   1.497       .  S
C13          C14   1.413       .  A
C13          H17   1.083       .  S
C14          C15   1.406       .  A
C14         C452   1.489       .  S
C15          H18   1.084       .  S
C19          C20   1.402       .  A
C19          C24   1.402       .  A
C19         C284   1.480       .  S
C20          C21   1.409       .  A
C20          H25   1.083       .  S
C21          C22   1.410       .  A
C21         C329   1.490       .  S
C22          C23   1.408       .  A
C22          H26   1.083       .  S
C23          C24   1.407       .  A
C23         C305   1.497       .  S
C24          H27   1.083       .  S
C28          C29   1.406       .  A
C28          C33   1.401       .  A
C28         C233   1.481       .  S
C29          C30   1.412       .  A
C29          H34   1.083       .  S
C30          C31   1.408       .  A
C30         C332   1.491       .  S
C31          C32   1.404       .  A
C31          H35   1.083       .  S
C32          C33   1.406       .  A
C32         C260   1.488       .  S
C33          H36   1.084       .  S
C37          C38   1.399       .  A
C37          C42   1.401       .  A
C37         C188   1.481       .  S
C38          C39   1.406       .  A
C38          H43   1.084       .  S
C39          C40   1.407       .  A
C39         C161   1.492       .  S
C40          C41   1.412       .  A
C40          H44   1.082       .  S
C41          C42   1.412       .  A
C41         C209   1.496       .  S
C42          H45   1.083       .  S
C46          C47   1.401       .  A
C46          C51   1.400       .  A
C46         C137   1.481       .  S
C47          C48   1.411       .  A
C47          H52   1.083       .  S
C48          C49   1.414       .  A
C48         C212   1.498       .  S
C49          C50   1.410       .  A
C49          H53   1.082       .  S
C50          C51   1.407       .  A
C50         C113   1.498       .  S
C51          H54   1.083       .  S
O55         Mn81   2.086   1_565  S
O55         C543   1.272       .  A
C56         C377   1.481       .  S
C56          O89   1.272       .  A
C56          O86   1.270       .  A
O57         Mn64   2.162       .  S
O57         Mn75   2.137       .  S
O57         Mn79   2.173       .  S
O57        Mn542   2.122       .  S
O58         Mn92   2.104       .  S
O58          C68   1.274       .  A
O59         Mn75   2.098       .  S
O59          C82   1.272       .  A
O60         Mn79   2.095       .  S
O60          C87   1.252       .  A
O61         Mn81   1.971       .  S
O61       Mn1014   1.964       .  S
O61          C77   1.220       .  S
C62         C308   1.484       .  S
C62          O65   1.254       .  A
C62          O88   1.216       .  S
O63         Mn64   2.174       .  S
O63         Mn97   2.127       .  S
O63         Mn79   2.172       .  S
O63       Mn1005   2.127       .  S
Mn64         O69   2.106       .  S
Mn64       O1015   2.103       .  S
Mn64        O557   2.120       .  S
Mn64       O1453   2.168       .  S
O65       Mn1001   2.127   1_455  S
O66         Mn73   2.100       .  S
O66          C68   1.274       .  A
C67         C257   1.472       .  S
C67          O93   1.252       .  A
C67          O80   1.218       .  S
C68         C425   1.490       .  S
O69          C94   1.254       .  A
O70         Mn73   2.118       .  S
O70         Mn92   2.131       .  S
O70       Mn1447   2.168   1_445  S
O70       Mn1462   2.157   1_445  S
O71         Mn75   1.965       .  S
O71         Mn97   1.968       .  S
O71          C94   1.222       .  S
C72         C185   1.489       .  S
C72          O74   1.273       .  A
C72        O1020   1.272       .  A
Mn73         O86   2.083       .  S
Mn73        O549   1.961   1_545  S
Mn73        O541   1.960   1_545  S
O74         Mn97   2.102       .  S
Mn75         O91   2.102       .  S
Mn75         O85   1.967       .  S
O76        Mn542   2.105       .  S
O76          C78   1.275       .  A
C77         C164   1.474       .  S
C77          O95   1.252       .  A
C78         C236   1.493       .  S
C78          O91   1.274       .  A
Mn79        O987   2.127       .  S
Mn79        O556   2.098       .  S
Mn79       O1453   2.157       .  S
O80         Mn83   1.960       .  S
O80        Mn534   1.960       .  S
Mn81        O537   2.105   1_545  S
Mn81        O518   2.122   1_545  S
Mn81         O99   1.961       .  S
C82         C281   1.484       .  S
C82         O516   1.272       .  A
Mn83         O90   2.094       .  S
Mn83         O98   2.098       .  S
Mn83        O985   2.127   1_455  S
Mn83         O88   1.953       .  S
C84         C140   1.485       .  S
C84         O100   1.273       .  A
C84        O1012   1.272       .  A
O85         Mn97   1.965       .  S
O85          C87   1.222       .  S
C87         C401   1.472       .  S
O88        Mn534   1.961       .  S
O89         Mn92   2.094       .  S
O90        C1006   1.272   1_455  A
Mn92        O983   1.964   1_455  S
Mn92       O1021   1.962   1_455  S
O93        Mn986   2.103   1_455  S
C94         C356   1.480       .  S
O95        Mn540   2.098   1_545  S
O96        Mn525   2.120   1_545  S
O96         C101   1.255       .  A
Mn97        O100   2.096       .  S
O98         C994   1.272   1_455  A
O99       Mn1014   1.962       .  S
O99         C101   1.218       .  S
C101        C116   1.483       .  S
C102        C103   1.403       .  A
C102       C1029   1.405       .  A
C102        H118   1.084       .  S
C103       C1026   1.405       .  A
C103        H119   1.083       .  S
C104        C114   1.409       .  A
C104        C105   1.411       .  A
C104       C1025   1.405       .  A
C105        C111   1.411       .  A
C105        C106   1.415       .  A
C106        C108   1.411       .  A
C106        C107   1.413       .  A
C107       C1024   1.405       .  A
C107       C1037   1.411       .  A
C108        C117   1.402       .  A
C108        C109   1.404       .  A
C109        C110   1.398       .  A
C109        H120   1.083       .  S
C110        C111   1.403       .  A
C110        H121   1.084       .  S
C111        C112   1.403       .  A
C112        C113   1.410       .  A
C112        H122   1.084       .  S
C113        C114   1.412       .  A
C114       H1045   1.083       .  S
C115       C1029   1.411   1_655  A
C115       C1038   1.407       .  A
C115        H124   1.084   1_655  S
C116        C117   1.407       .  A
C116       C1037   1.407       .  A
C117        H125   1.084       .  S
H123       C1036   1.083       .  S
C126        C127   1.400       .  A
C126        C131   1.404       .  A
C126        H142   1.083       .  S
C127        C128   1.404       .  A
C127        H143   1.083       .  S
C128        C138   1.407       .  A
C128        C129   1.413       .  A
C129        C135   1.411       .  A
C129        C130   1.413       .  A
C130        C132   1.412       .  A
C130        C131   1.411       .  A
C131        C139   1.405       .  A
C132        C141   1.403       .  A
C132        C133   1.403       .  A
C133        C134   1.398       .  A
C133        H144   1.084       .  S
C134        C135   1.403       .  A
C134        H145   1.084       .  S
C135        C136   1.402       .  A
C136        C137   1.405       .  A
C136        H146   1.085       .  S
C137        C138   1.405       .  A
C138        H147   1.084       .  S
C139        C140   1.409       .  A
C139        H148   1.084       .  S
C140        C141   1.408       .  A
C141        H149   1.084       .  S
C150        C151   1.396       .  A
C150        C155   1.402       .  A
C150        H166   1.083       .  S
C151        C152   1.403       .  A
C151        H167   1.084       .  S
C152        C162   1.398       .  A
C152        C153   1.410       .  A
C153        C154   1.412       .  A
C153       C1081   1.412       .  A
C154        C155   1.411       .  A
C154       C1078   1.412       .  A
C155        C163   1.398       .  A
C156        C165   1.407       .  A
C156        C157   1.404       .  A
C156       C1076   1.412   1_455  A
C157        C158   1.402       .  A
C157        H168   1.084       .  S
C158        C159   1.405       .  A
C158        H169   1.083       .  S
C159        C160   1.408       .  A
C159       C1075   1.412   1_455  A
C160       C1083   1.411       .  A
C160        H170   1.084       .  S
C161        C162   1.407       .  A
C161       C1082   1.411       .  A
C162        H171   1.084       .  S
C163        C164   1.404       .  A
C163        H172   1.085       .  S
C164       C1087   1.407       .  A
C165       C1086   1.407   1_455  A
C165        H173   1.085       .  S
C174        C175   1.399       .  A
C174        C179   1.403       .  A
C174        H190   1.084       .  S
C175        C176   1.404       .  A
C175        H191   1.083       .  S
C176        C186   1.406       .  A
C176        C177   1.413       .  A
C177        C183   1.410       .  A
C177        C178   1.414       .  A
C178        C180   1.414       .  A
C178        C179   1.411       .  A
C179        C187   1.402       .  A
C180        C189   1.408       .  A
C180       C1103   1.404       .  A
C181        C182   1.401       .  A
C181       C1102   1.404       .  A
C181        H192   1.084       .  S
C182       C1105   1.405       .  A
C182        H193   1.084       .  S
C183        C184   1.405       .  A
C183       C1104   1.405       .  A
C184        C185   1.410       .  A
C184        H194   1.081       .  S
C185        C186   1.409       .  A
C186        H195   1.084       .  S
C187        C188   1.405       .  A
C187        H196   1.085       .  S
C188        C189   1.405       .  A
C189       H1119   1.084       .  S
H197       C1111   1.084       .  S
C198        C199   1.401       .  A
C198        C203   1.404       .  A
C198        H214   1.083       .  S
C199        C200   1.404       .  A
C199        H215   1.083       .  S
C200        C210   1.406       .  A
C200       C1123   1.411       .  A
C201        C207   1.410       .  A
C201        C202   1.414       .  A
C201       C1122   1.411       .  A
C202        C204   1.410       .  A
C202       C1125   1.411       .  A
C203        C211   1.406   1_554  A
C203       C1124   1.411       .  A
C204        C213   1.403   1_554  A
C204        C205   1.404       .  A
C205        C206   1.398       .  A
C205        H216   1.083       .  S
C206        C207   1.403       .  A
C206        H217   1.084       .  S
C207        C208   1.402       .  A
C208        C209   1.410       .  A
C208        H218   1.083       .  S
C209       C1132   1.411       .  A
C210       C1131   1.411       .  A
C210        H219   1.083       .  S
C211       C1134   1.411       .  A
C211        H220   1.083       .  S
C212        C213   1.411       .  A
C212       C1133   1.411       .  A
C213        H221   1.083       .  S
C222        C223   1.402       .  A
C222        C227   1.406       .  A
C222        H238   1.083       .  S
C223        C224   1.405       .  A
C223        H239   1.084       .  S
C224        C234   1.410       .  A
C224        C225   1.414       .  A
C225        C231   1.412       .  A
C225        C226   1.416       .  A
C226        C228   1.412       .  A
C226        C227   1.411       .  A
C227        C235   1.408       .  A
C228        C237   1.405       .  A
C228        C690   1.404       .  A
C229        C230   1.399       .  A
C229        C689   1.404   1_545  A
C229        H240   1.084       .  S
C230        C692   1.403   1_545  A
C230        H241   1.083       .  S
C231        C232   1.404       .  A
C231        C691   1.403       .  A
C232        C233   1.404       .  A
C232        H703   1.084       .  S
C233        C234   1.406       .  A
C234        H243   1.084       .  S
C235        C236   1.412       .  A
C235        H244   1.084       .  S
C236        C237   1.409       .  A
C237        H245   1.084       .  S
H242        C693   1.084   1_545  S
C246        C247   1.396       .  A
C246        C251   1.403       .  A
C246        H262   1.084       .  S
C247        C248   1.402       .  A
C247        H263   1.084       .  S
C248        C258   1.397       .  A
C248        C249   1.411       .  A
C249        C255   1.413       .  A
C249        C250   1.411       .  A
C250        C252   1.411       .  A
C250        C251   1.411       .  A
C251        C259   1.399       .  A
C252        C261   1.406       .  A
C252        C253   1.405       .  A
C253        C254   1.401       .  A
C253        H264   1.083       .  S
C254        C255   1.404       .  A
C254        H265   1.084       .  S
C255        C256   1.406       .  A
C256        C257   1.405       .  A
C256        H266   1.084       .  S
C257        C258   1.404       .  A
C258        H267   1.085       .  S
C259        C260   1.406       .  A
C259        H268   1.084       .  S
C260        C261   1.410       .  A
C261        H269   1.084       .  S
C270        C271   1.397       .  A
C270        C275   1.402       .  A
C270        H286   1.084       .  S
C271        C272   1.403       .  A
C271        H287   1.083       .  S
C272        C282   1.400       .  A
C272        C273   1.411       .  A
C273        C279   1.412       .  A
C273        C274   1.413       .  A
C274        C276   1.413       .  A
C274        C275   1.412       .  A
C275        C283   1.401       .  A
C276        C285   1.408       .  A
C276        C277   1.405       .  A
C277        C278   1.402       .  A
C277        H288   1.083       .  S
C278        C279   1.404       .  A
C278        H289   1.084       .  S
C279        C280   1.407       .  A
C280        C281   1.410       .  A
C280        H290   1.084       .  S
C281        C282   1.408       .  A
C282        H291   1.084       .  S
C283        C284   1.403       .  A
C283        H292   1.085       .  S
C284        C285   1.407       .  A
C285        H293   1.084       .  S
C294        C295   1.404       .  A
C294        C299   1.405       .  A
C294        H310   1.084       .  S
C295        C296   1.406       .  A
C295        H311   1.083       .  S
C296        C306   1.409       .  A
C296        C297   1.410       .  A
C297        C303   1.411       .  A
C297        C298   1.414       .  A
C298        C300   1.409       .  A
C298        C299   1.414       .  A
C299        C307   1.412       .  A
C300        C309   1.397       .  A
C300        C301   1.403       .  A
C301        C302   1.396       .  A
C301        H312   1.083       .  S
C302        C303   1.402       .  A
C302        H313   1.084       .  S
C303        C304   1.401       .  A
C304        C305   1.409       .  A
C304        H314   1.084       .  S
C305        C306   1.412       .  A
C306        H315   1.083       .  S
C307        C308   1.408       .  A
C307        H316   1.084       .  S
C308        C309   1.408       .  A
C309        H317   1.084       .  S
C318        C319   1.399       .  A
C318        C323   1.404       .  A
C318        H334   1.083       .  S
C319        C320   1.404       .  A
C319        H335   1.084       .  S
C320        C330   1.404       .  A
C320        C321   1.411       .  A
C321        C327   1.412       .  A
C321        C322   1.414       .  A
C322        C324   1.412       .  A
C322        C323   1.411       .  A
C323        C331   1.404   1_554  A
C324        C333   1.406   1_554  A
C324        C325   1.404       .  A
C325        C326   1.401       .  A
C325        H336   1.083       .  S
C326        C327   1.404       .  A
C326        H337   1.083       .  S
C327        C328   1.406       .  A
C328        C329   1.408       .  A
C328        H338   1.084       .  S
C329        C330   1.408       .  A
C330        H339   1.084       .  S
C331        C332   1.410       .  A
C331        H340   1.084       .  S
C332        C333   1.408       .  A
C333        H341   1.084       .  S
C342        C343   1.403       .  A
C342        C347   1.405       .  A
C342        H358   1.084       .  S
C343        C344   1.406       .  A
C343        H359   1.083       .  S
C344        C354   1.410       .  A
C344        C345   1.411       .  A
C345        C351   1.410       .  A
C345        C346   1.415       .  A
C346        C348   1.411       .  A
C346        C347   1.412       .  A
C347        C355   1.410       .  A
C348        C357   1.401       .  A
C348        C349   1.403       .  A
C349        C350   1.397       .  A
C349        H360   1.083       .  S
C350        C351   1.403       .  A
C350        H361   1.084       .  S
C351        C352   1.401       .  A
C352        C353   1.410       .  A
C352        H362   1.084       .  S
C353        C354   1.412       .  A
C354        H363   1.083       .  S
C355        C356   1.408       .  A
C355        H364   1.084       .  S
C356        C357   1.405       .  A
C357        H365   1.084       .  S
C366        C367   1.398       .  A
C366        C371   1.403       .  A
C366        H382   1.084       .  S
C367        C368   1.403       .  A
C367        H383   1.084       .  S
C368        C378   1.400       .  A
C368        C369   1.411       .  A
C369        C375   1.412       .  A
C369        C370   1.411       .  A
C370        C372   1.413       .  A
C370        C371   1.412       .  A
C371        C379   1.401       .  A
C372        C381   1.404       .  A
C372        C373   1.404       .  A
C373        C374   1.399       .  A
C373        H384   1.083       .  S
C374        C375   1.404       .  A
C374        H385   1.084       .  S
C375        C376   1.403       .  A
C376        C377   1.408       .  A
C376        H386   1.084       .  S
C377        C378   1.408       .  A
C378        H387   1.084       .  S
C379        C380   1.403       .  A
C379        H388   1.085       .  S
C380        C381   1.404       .  A
C381        H389   1.084       .  S
C390        C391   1.396       .  A
C390        C395   1.403       .  A
C390        H406   1.084       .  S
C391        C392   1.402       .  A
C391        H407   1.084       .  S
C392        C402   1.398       .  A
C392        C393   1.411       .  A
C393        C399   1.413       .  A
C393        C394   1.412       .  A
C394        C396   1.412       .  A
C394        C395   1.411       .  A
C395        C403   1.399       .  A
C396        C405   1.409       .  A
C396        C397   1.406       .  A
C397        C398   1.402       .  A
C397        H408   1.083       .  S
C398        C399   1.404       .  A
C398        H409   1.084       .  S
C399        C400   1.407       .  A
C400        C401   1.406       .  A
C400        H410   1.085       .  S
C401        C402   1.403       .  A
C402        H411   1.084       .  S
C403        C404   1.406       .  A
C403        H412   1.084       .  S
C404        C405   1.411       .  A
C405        H413   1.084       .  S
C414        C415   1.401       .  A
C414        C419   1.405       .  A
C414        H430   1.084       .  S
C415        C416   1.405       .  A
C415        H431   1.083       .  S
C416        C426   1.407       .  A
C416        C417   1.411       .  A
C417        C423   1.411       .  A
C417        C418   1.415       .  A
C418        C420   1.412       .  A
C418        C419   1.413       .  A
C419        C427   1.408       .  A
C420        C429   1.404       .  A
C420        C421   1.403       .  A
C421        C422   1.399       .  A
C421        H432   1.084       .  S
C422        C423   1.404       .  A
C422        H433   1.083       .  S
C423        C424   1.404       .  A
C424        C425   1.409       .  A
C424        H434   1.084       .  S
C425        C426   1.411       .  A
C426        H435   1.084       .  S
C427        C428   1.406       .  A
C427        H436   1.084       .  S
C428        C429   1.405       .  A
C429        H437   1.085       .  S
C438        C439   1.399       .  A
C438        C443   1.404       .  A
C438        H454   1.084       .  S
C439        C440   1.404       .  A
C439        H455   1.084       .  S
C440        C450   1.404       .  A
C440        C441   1.411       .  A
C441        C447   1.411       .  A
C441        C442   1.414       .  A
C442        C444   1.412       .  A
C442        C443   1.411       .  A
C443        C451   1.403   1_554  A
C444        C453   1.406   1_554  A
C444        C445   1.404       .  A
C445        C446   1.400       .  A
C445        H456   1.083       .  S
C446        C447   1.404       .  A
C446        H457   1.083       .  S
C447        C448   1.406       .  A
C448        C449   1.408       .  A
C448        H458   1.084       .  S
C449        C450   1.408       .  A
C450        H459   1.084       .  S
C451        C452   1.409       .  A
C451        H460   1.084       .  S
C452        C453   1.407       .  A
C453        H461   1.084       .  S
C462        C463   1.401       .  A
C462        C467   1.402       .  A
C462        C889   1.482       .  S
C463        C464   1.408       .  A
C463        H468   1.084       .  S
C464        C465   1.407       .  A
C464        C865   1.490       .  S
C465        C466   1.410       .  A
C465        H469   1.083       .  S
C466        C467   1.409       .  A
C466        C910   1.489       .  S
C467        H470   1.084       .  S
C471        C472   1.399       .  A
C471        C476   1.398       .  A
C471        C841   1.475       .  S
C472        C473   1.408       .  A
C472        H477   1.083       .  S
C473        C474   1.411       .  A
C473        C814   1.497       .  S
C474        C475   1.413       .  A
C474        H478   1.083       .  S
C475        C476   1.406       .  A
C475        C913   1.489       .  S
C476        H479   1.084       .  S
C480        C481   1.402       .  A
C480        C485   1.402       .  A
C480        C745   1.480       .  S
C481        C482   1.409       .  A
C481        H486   1.083       .  S
C482        C483   1.410       .  A
C482        C790   1.490       .  S
C483        C484   1.408       .  A
C483        H487   1.083       .  S
C484        C485   1.407       .  A
C484        C766   1.497       .  S
C485        H488   1.083       .  S
C489        C490   1.406       .  A
C489        C494   1.401       .  A
C489        C694   1.481       .  S
C490        C491   1.412       .  A
C490        H495   1.083       .  S
C491        C492   1.408       .  A
C491        C793   1.491       .  S
C492        C493   1.404       .  A
C492        H496   1.083       .  S
C493        C494   1.406       .  A
C493        C721   1.488       .  S
C494        H497   1.084       .  S
C498        C499   1.399       .  A
C498        C503   1.401       .  A
C498        C649   1.481       .  S
C499        C500   1.406       .  A
C499        H504   1.084       .  S
C500        C501   1.407       .  A
C500        C622   1.492       .  S
C501        C502   1.412       .  A
C501        H505   1.082       .  S
C502        C503   1.412       .  A
C502        C670   1.496       .  S
C503        H506   1.083       .  S
C507        C508   1.401       .  A
C507        C512   1.400       .  A
C507        C598   1.481       .  S
C508        C509   1.411       .  A
C508        H513   1.083       .  S
C509        C510   1.414       .  A
C509        C673   1.498       .  S
C510        C511   1.410       .  A
C510        H514   1.082       .  S
C511        C512   1.407       .  A
C511        C574   1.498       .  S
C512        H515   1.083       .  S
O516       Mn542   2.086       .  S
C517        C838   1.481       .  S
C517        O550   1.272       .  A
C517        O547   1.270       .  A
O518       Mn525   2.162       .  S
O518       Mn536   2.137       .  S
O518       Mn540   2.173       .  S
O519       Mn553   2.104       .  S
O519        C529   1.274       .  A
O520       Mn536   2.098       .  S
O520        C543   1.272       .  A
O521       Mn540   2.095       .  S
O521        C548   1.252       .  A
O522      Mn1475   1.965       .  S
O522       Mn542   1.971       .  S
O522        C538   1.220       .  S
C523        C769   1.484       .  S
C523        O526   1.254       .  A
C523        O549   1.216       .  S
O524      Mn1466   2.127       .  S
O524       Mn525   2.174       .  S
O524       Mn558   2.127       .  S
O524       Mn540   2.172       .  S
Mn525      O1476   2.103       .  S
Mn525       O530   2.106       .  S
Mn525       O992   2.168   1_565  S
O526      Mn1462   2.127   1_455  S
O527       Mn534   2.100       .  S
O527        C529   1.274       .  A
C528        C718   1.472       .  S
C528        O554   1.252       .  A
C528        O541   1.218       .  S
C529        C886   1.490       .  S
O530        C555   1.254       .  A
O531       Mn986   2.168   1_455  S
O531       Mn534   2.118       .  S
O531       Mn553   2.131       .  S
O531      Mn1001   2.157   1_455  S
O532       Mn536   1.965       .  S
O532       Mn558   1.968       .  S
O532        C555   1.222       .  S
C533        C646   1.489       .  S
C533       O1481   1.272       .  A
C533        O535   1.273       .  A
Mn534       O547   2.083       .  S
O535       Mn558   2.102       .  S
Mn536       O552   2.102       .  S
Mn536       O546   1.967       .  S
O537        C539   1.275       .  A
C538        C625   1.474       .  S
C538        O556   1.252       .  A
C539        C697   1.493       .  S
C539        O552   1.274       .  A
Mn540      O1448   2.127       .  S
Mn540       O992   2.157   1_565  S
O541       Mn544   1.960       .  S
Mn542       O560   1.961       .  S
C543        C742   1.484       .  S
Mn544       O551   2.094       .  S
Mn544       O559   2.098       .  S
Mn544      O1446   2.127   1_455  S
Mn544       O549   1.953       .  S
C545        C601   1.485       .  S
C545       O1473   1.272       .  A
C545        O561   1.273       .  A
O546       Mn558   1.965       .  S
O546        C548   1.222       .  S
C548        C862   1.472       .  S
O550       Mn553   2.094       .  S
O551       C1467   1.272   1_455  A
Mn553      O1444   1.964   1_455  S
Mn553      O1482   1.962   1_455  S
O554      Mn1447   2.103   1_455  S
C555        C817   1.480       .  S
O557        C562   1.255       .  A
Mn558       O561   2.096       .  S
O559       C1455   1.272   1_455  A
O560      Mn1475   1.962       .  S
O560        C562   1.218       .  S
C562        C577   1.483       .  S
C563        C564   1.403       .  A
C563       C1490   1.405       .  A
C563        H579   1.084       .  S
C564       C1487   1.405       .  A
C564        H580   1.083       .  S
C565       C1486   1.405       .  A
C565        C575   1.409       .  A
C565        C566   1.411       .  A
C566        C572   1.411       .  A
C566        C567   1.415       .  A
C567        C569   1.411       .  A
C567        C568   1.413       .  A
C568       C1485   1.405       .  A
C568       C1498   1.411       .  A
C569        C578   1.402       .  A
C569        C570   1.404       .  A
C570        C571   1.398       .  A
C570        H581   1.083       .  S
C571        C572   1.403       .  A
C571        H582   1.084       .  S
C572        C573   1.403       .  A
C573        C574   1.410       .  A
C573        H583   1.084       .  S
C574        C575   1.412       .  A
C575       H1506   1.083       .  S
C576       C1490   1.411   1_655  A
C576       C1499   1.407       .  A
C576        H585   1.084   1_655  S
C577       C1498   1.407       .  A
C577        C578   1.407       .  A
C578        H586   1.084       .  S
H584       C1497   1.083       .  S
C587        C588   1.400       .  A
C587        C592   1.404       .  A
C587        H603   1.083       .  S
C588        C589   1.404       .  A
C588        H604   1.083       .  S
C589        C599   1.407       .  A
C589        C590   1.413       .  A
C590        C596   1.411       .  A
C590        C591   1.413       .  A
C591        C593   1.412       .  A
C591        C592   1.411       .  A
C592        C600   1.405       .  A
C593        C602   1.403       .  A
C593        C594   1.403       .  A
C594        C595   1.398       .  A
C594        H605   1.084       .  S
C595        C596   1.403       .  A
C595        H606   1.084       .  S
C596        C597   1.402       .  A
C597        C598   1.405       .  A
C597        H607   1.085       .  S
C598        C599   1.405       .  A
C599        H608   1.084       .  S
C600        C601   1.409       .  A
C600        H609   1.084       .  S
C601        C602   1.408       .  A
C602        H610   1.084       .  S
C611        C612   1.396       .  A
C611        C616   1.402       .  A
C611        H627   1.083       .  S
C612        C613   1.403       .  A
C612        H628   1.084       .  S
C613        C623   1.398       .  A
C613        C614   1.410       .  A
C614       C1542   1.412       .  A
C614        C615   1.412       .  A
C615       C1539   1.412       .  A
C615        C616   1.411       .  A
C616        C624   1.398       .  A
C617       C1537   1.412   1_455  A
C617        C626   1.407       .  A
C617        C618   1.404       .  A
C618        C619   1.402       .  A
C618        H629   1.084       .  S
C619        C620   1.405       .  A
C619        H630   1.083       .  S
C620       C1536   1.412   1_455  A
C620        C621   1.408       .  A
C621       C1544   1.411       .  A
C621        H631   1.084       .  S
C622       C1543   1.411       .  A
C622        C623   1.407       .  A
C623        H632   1.084       .  S
C624        C625   1.404       .  A
C624        H633   1.085       .  S
C625       C1548   1.407       .  A
C626       C1547   1.407   1_455  A
C626        H634   1.085       .  S
C635        C636   1.399       .  A
C635        C640   1.403       .  A
C635        H651   1.084       .  S
C636        C637   1.404       .  A
C636        H652   1.083       .  S
C637        C647   1.406       .  A
C637        C638   1.413       .  A
C638        C644   1.410       .  A
C638        C639   1.414       .  A
C639        C641   1.414       .  A
C639        C640   1.411       .  A
C640        C648   1.402       .  A
C641        C650   1.408       .  A
C641       C1564   1.404       .  A
C642       C1563   1.404       .  A
C642        C643   1.401       .  A
C642        H653   1.084       .  S
C643       C1566   1.405       .  A
C643        H654   1.084       .  S
C644       C1565   1.405       .  A
C644        C645   1.405       .  A
C645        C646   1.410       .  A
C645        H655   1.081       .  S
C646        C647   1.409       .  A
C647        H656   1.084       .  S
C648        C649   1.405       .  A
C648        H657   1.085       .  S
C649        C650   1.405       .  A
C650       H1580   1.084       .  S
H658       C1572   1.084       .  S
C659        C660   1.401       .  A
C659        C664   1.404       .  A
C659        H675   1.083       .  S
C660        C661   1.404       .  A
C660        H676   1.083       .  S
C661        C671   1.406       .  A
C661       C1584   1.411       .  A
C662       C1583   1.411       .  A
C662        C668   1.410       .  A
C662        C663   1.414       .  A
C663        C665   1.410       .  A
C663       C1586   1.411       .  A
C664       C1585   1.411       .  A
C664        C672   1.406   1_554  A
C665        C674   1.403   1_554  A
C665        C666   1.404       .  A
C666        C667   1.398       .  A
C666        H677   1.083       .  S
C667        C668   1.403       .  A
C667        H678   1.084       .  S
C668        C669   1.402       .  A
C669        C670   1.410       .  A
C669        H679   1.083       .  S
C670       C1593   1.411       .  A
C671       C1592   1.411       .  A
C671        H680   1.083       .  S
C672       C1595   1.411       .  A
C672        H681   1.083       .  S
C673       C1594   1.411       .  A
C673        C674   1.411       .  A
C674        H682   1.083       .  S
C683        C684   1.402       .  A
C683        C688   1.406       .  A
C683        H699   1.083       .  S
C684        C685   1.405       .  A
C684        H700   1.084       .  S
C685        C695   1.410       .  A
C685        C686   1.414       .  A
C686        C692   1.412       .  A
C686        C687   1.416       .  A
C687        C689   1.412       .  A
C687        C688   1.411       .  A
C688        C696   1.408       .  A
C689        C698   1.405       .  A
C690        C691   1.399       .  A
C690        H701   1.084       .  S
C691        H702   1.083       .  S
C692        C693   1.404       .  A
C693        C694   1.404       .  A
C694        C695   1.406       .  A
C695        H704   1.084       .  S
C696        C697   1.412       .  A
C696        H705   1.084       .  S
C697        C698   1.409       .  A
C698        H706   1.084   1_565  S
C707        C708   1.396       .  A
C707        C712   1.403   1_545  A
C707        H723   1.084       .  S
C708        C709   1.402   1_545  A
C708        H724   1.084       .  S
C709        C719   1.397       .  A
C709        C710   1.411       .  A
C710        C716   1.413       .  A
C710        C711   1.411       .  A
C711        C713   1.411       .  A
C711        C712   1.411       .  A
C712        C720   1.399       .  A
C713        C722   1.406       .  A
C713        C714   1.405       .  A
C714        C715   1.401       .  A
C714        H725   1.083       .  S
C715        C716   1.404       .  A
C715        H726   1.084       .  S
C716        C717   1.406       .  A
C717        C718   1.405       .  A
C717        H727   1.084       .  S
C718        C719   1.404       .  A
C719        H728   1.085   1_565  S
C720        C721   1.406       .  A
C720        H729   1.084       .  S
C721        C722   1.410       .  A
C722        H730   1.084       .  S
C731        C732   1.397       .  A
C731        C736   1.402   1_545  A
C731        H747   1.084       .  S
C732        C733   1.403   1_545  A
C732        H748   1.083       .  S
C733        C743   1.400       .  A
C733        C734   1.411       .  A
C734        C740   1.412       .  A
C734        C735   1.413       .  A
C735        C737   1.413       .  A
C735        C736   1.412       .  A
C736        C744   1.401       .  A
C737        C746   1.408       .  A
C737        C738   1.405       .  A
C738        C739   1.402       .  A
C738        H749   1.083       .  S
C739        C740   1.404       .  A
C739        H750   1.084       .  S
C740        C741   1.407       .  A
C741        C742   1.410       .  A
C741        H751   1.084       .  S
C742        C743   1.408       .  A
C743        H752   1.084   1_565  S
C744        C745   1.403       .  A
C744        H753   1.085   1_565  S
C745        C746   1.407       .  A
C746        H754   1.084       .  S
C755        C756   1.404       .  A
C755        C760   1.405       .  A
C755        H771   1.084   1_565  S
C756        C757   1.406       .  A
C756        H772   1.083   1_565  S
C757        C767   1.409       .  A
C757        C758   1.410       .  A
C758        C764   1.411       .  A
C758        C759   1.414       .  A
C759        C761   1.409       .  A
C759        C760   1.414       .  A
C760        C768   1.412       .  A
C761        C770   1.397       .  A
C761        C762   1.403       .  A
C762        C763   1.396       .  A
C762        H773   1.083       .  S
C763        C764   1.402       .  A
C763        H774   1.084       .  S
C764        C765   1.401       .  A
C765        C766   1.409       .  A
C765        H775   1.084       .  S
C766        C767   1.412       .  A
C767        H776   1.083       .  S
C768        C769   1.408       .  A
C768        H777   1.084       .  S
C769        C770   1.408       .  A
C770        H778   1.084       .  S
C779        C780   1.399       .  A
C779        C784   1.404       .  A
C779        H795   1.083   1_565  S
C780        C781   1.404       .  A
C780        H796   1.084   1_565  S
C781        C791   1.404       .  A
C781        C782   1.411       .  A
C782        C788   1.412       .  A
C782        C783   1.414       .  A
C783        C785   1.412       .  A
C783        C784   1.411       .  A
C784        C792   1.404   1_554  A
C785        C794   1.406   1_554  A
C785        C786   1.404       .  A
C786        C787   1.401       .  A
C786        H797   1.083       .  S
C787        C788   1.404       .  A
C787        H798   1.083       .  S
C788        C789   1.406       .  A
C789        C790   1.408       .  A
C789        H799   1.084       .  S
C790        C791   1.408       .  A
C791        H800   1.084       .  S
C792        C793   1.410       .  A
C792        H801   1.084       .  S
C793        C794   1.408       .  A
C794        H802   1.084       .  S
C803        C804   1.403       .  A
C803        C808   1.405       .  A
C803        H819   1.084       .  S
C804        C805   1.406       .  A
C804        H820   1.083       .  S
C805        C815   1.410       .  A
C805        C806   1.411       .  A
C806        C812   1.410       .  A
C806        C807   1.415       .  A
C807        C809   1.411       .  A
C807        C808   1.412       .  A
C808        C816   1.410       .  A
C809        C818   1.401       .  A
C809        C810   1.403       .  A
C810        C811   1.397       .  A
C810        H821   1.083       .  S
C811        C812   1.403       .  A
C811        H822   1.084       .  S
C812        C813   1.401       .  A
C813        C814   1.410       .  A
C813        H823   1.084       .  S
C814        C815   1.412       .  A
C815        H824   1.083       .  S
C816        C817   1.408       .  A
C816        H825   1.084       .  S
C817        C818   1.405       .  A
C818        H826   1.084       .  S
C827        C828   1.398       .  A
C827        C832   1.403       .  A
C827        H843   1.084       .  S
C828        C829   1.403       .  A
C828        H844   1.084       .  S
C829        C839   1.400       .  A
C829        C830   1.411       .  A
C830        C836   1.412       .  A
C830        C831   1.411       .  A
C831        C833   1.413       .  A
C831        C832   1.412       .  A
C832        C840   1.401       .  A
C833        C842   1.404       .  A
C833        C834   1.404       .  A
C834        C835   1.399       .  A
C834        H845   1.083       .  S
C835        C836   1.404       .  A
C835        H846   1.084       .  S
C836        C837   1.403       .  A
C837        C838   1.408       .  A
C837        H847   1.084       .  S
C838        C839   1.408       .  A
C839        H848   1.084       .  S
C840        C841   1.403       .  A
C840        H849   1.085       .  S
C841        C842   1.404       .  A
C842        H850   1.084       .  S
C851        C852   1.396       .  A
C851        C856   1.403       .  A
C851        H867   1.084       .  S
C852        C853   1.402       .  A
C852        H868   1.084       .  S
C853        C863   1.398       .  A
C853        C854   1.411       .  A
C854        C860   1.413       .  A
C854        C855   1.412       .  A
C855        C857   1.412       .  A
C855        C856   1.411       .  A
C856        C864   1.399       .  A
C857        C866   1.409       .  A
C857        C858   1.406       .  A
C858        C859   1.402       .  A
C858        H869   1.083       .  S
C859        C860   1.404       .  A
C859        H870   1.084       .  S
C860        C861   1.407       .  A
C861        C862   1.406       .  A
C861        H871   1.085       .  S
C862        C863   1.403       .  A
C863        H872   1.084       .  S
C864        C865   1.406       .  A
C864        H873   1.084       .  S
C865        C866   1.411       .  A
C866        H874   1.084       .  S
C875        C876   1.401       .  A
C875        C880   1.405       .  A
C875        H891   1.084       .  S
C876        C877   1.405       .  A
C876        H892   1.083       .  S
C877        C887   1.407       .  A
C877        C878   1.411       .  A
C878        C884   1.411       .  A
C878        C879   1.415       .  A
C879        C881   1.412       .  A
C879        C880   1.413       .  A
C880        C888   1.408       .  A
C881        C890   1.404       .  A
C881        C882   1.403       .  A
C882        C883   1.399       .  A
C882        H893   1.084       .  S
C883        C884   1.404       .  A
C883        H894   1.083       .  S
C884        C885   1.404       .  A
C885        C886   1.409       .  A
C885        H895   1.084       .  S
C886        C887   1.411       .  A
C887        H896   1.084       .  S
C888        C889   1.406       .  A
C888        H897   1.084       .  S
C889        C890   1.405       .  A
C890        H898   1.085       .  S
C899        C900   1.399       .  A
C899        C904   1.404       .  A
C899        H915   1.084       .  S
C900        C901   1.404       .  A
C900        H916   1.084       .  S
C901        C911   1.404       .  A
C901        C902   1.411       .  A
C902        C908   1.411       .  A
C902        C903   1.414       .  A
C903        C905   1.412       .  A
C903        C904   1.411       .  A
C904        C912   1.403   1_554  A
C905        C914   1.406   1_554  A
C905        C906   1.404       .  A
C906        C907   1.400       .  A
C906        H917   1.083       .  S
C907        C908   1.404       .  A
C907        H918   1.083       .  S
C908        C909   1.406       .  A
C909        C910   1.408       .  A
C909        H919   1.084       .  S
C910        C911   1.408       .  A
C911        H920   1.084       .  S
C912        C913   1.409       .  A
C912        H921   1.084       .  S
C913        C914   1.407       .  A
C914        H922   1.084       .  S
C923        C924   1.401       .  A
C923        C928   1.402       .  A
C923       C1350   1.482       .  S
C924        C925   1.408       .  A
C924        H929   1.084       .  S
C925        C926   1.407       .  A
C925       C1326   1.490       .  S
C926        C927   1.410       .  A
C926        H930   1.083       .  S
C927        C928   1.409       .  A
C927       C1371   1.489       .  S
C928        H931   1.084       .  S
C932        C933   1.399       .  A
C932        C937   1.398       .  A
C932       C1302   1.475       .  S
C933        C934   1.408       .  A
C933        H938   1.083       .  S
C934        C935   1.411       .  A
C934       C1275   1.497       .  S
C935        C936   1.413       .  A
C935        H939   1.083       .  S
C936        C937   1.406       .  A
C936       C1374   1.489       .  S
C937        H940   1.084       .  S
C941        C942   1.402       .  A
C941        C946   1.402       .  A
C941       C1206   1.480       .  S
C942        C943   1.409       .  A
C942        H947   1.083       .  S
C943        C944   1.410       .  A
C943       C1251   1.490       .  S
C944        C945   1.408       .  A
C944        H948   1.083       .  S
C945        C946   1.407       .  A
C945       C1227   1.497       .  S
C946        H949   1.083       .  S
C950        C951   1.406       .  A
C950        C955   1.401       .  A
C950       C1155   1.481       .  S
C951        C952   1.412       .  A
C951        H956   1.083       .  S
C952        C953   1.408       .  A
C952       C1254   1.491       .  S
C953        C954   1.404       .  A
C953        H957   1.083       .  S
C954        C955   1.406       .  A
C954       C1182   1.488       .  S
C955        H958   1.084       .  S
C959        C960   1.399       .  A
C959        C964   1.401       .  A
C959       C1110   1.481       .  S
C960        C961   1.406       .  A
C960        H965   1.084       .  S
C961        C962   1.407       .  A
C961       C1083   1.492       .  S
C962        C963   1.412       .  A
C962        H966   1.082       .  S
C963        C964   1.412       .  A
C963       C1131   1.496       .  S
C964        H967   1.083       .  S
C968        C969   1.401       .  A
C968        C973   1.400   1_455  A
C968       C1059   1.481       .  S
C969        C970   1.411       .  A
C969        H974   1.083       .  S
C970        C971   1.414       .  A
C970       C1134   1.498       .  S
C971        C972   1.410   1_455  A
C971        H975   1.082       .  S
C972        C973   1.407       .  A
C972       C1035   1.498       .  S
C973        H976   1.083       .  S
O977      Mn1003   2.086   1_565  S
O977       C1465   1.272       .  A
C978       C1299   1.481       .  S
C978       O1011   1.272       .  A
C978       O1008   1.270       .  A
O979       Mn986   2.162       .  S
O979       Mn997   2.137       .  S
O979      Mn1001   2.173       .  S
O979      Mn1464   2.122       .  S
O980      Mn1014   2.104       .  S
O980        C990   1.274       .  A
O981       Mn997   2.098       .  S
O981       C1004   1.272       .  A
O982      Mn1001   2.095       .  S
O982       C1009   1.252       .  A
O983      Mn1003   1.971       .  S
O983        C999   1.220       .  S
C984       C1230   1.484       .  S
C984        O987   1.254       .  A
C984       O1010   1.216       .  S
O985       Mn986   2.174       .  S
O985      Mn1019   2.127       .  S
O985      Mn1001   2.172       .  S
Mn986       O991   2.106       .  S
Mn986      O1479   2.120       .  S
O988       Mn995   2.100       .  S
O988        C990   1.274       .  A
C989       C1179   1.472       .  S
C989       O1015   1.252       .  A
C989       O1002   1.218       .  S
C990       C1347   1.490       .  S
O991       C1016   1.254       .  A
O992       Mn995   2.118       .  S
O992      Mn1014   2.131       .  S
O993       Mn997   1.965       .  S
O993      Mn1019   1.968       .  S
O993       C1016   1.222       .  S
C994       C1107   1.489       .  S
C994        O996   1.273       .  A
Mn995      O1008   2.083       .  S
Mn995      O1471   1.961   1_545  S
Mn995      O1463   1.960   1_545  S
O996      Mn1019   2.102       .  S
Mn997      O1013   2.102       .  S
Mn997      O1007   1.967       .  S
O998      Mn1464   2.105       .  S
O998       C1000   1.275       .  A
C999       C1086   1.474       .  S
C999       O1017   1.252       .  A
C1000      C1158   1.493       .  S
C1000      O1013   1.274       .  A
Mn1001     O1478   2.098       .  S
O1002     Mn1456   1.960       .  S
O1002     Mn1005   1.960       .  S
Mn1003     O1459   2.105   1_545  S
Mn1003     O1440   2.122   1_545  S
Mn1003     O1021   1.961       .  S
C1004      C1203   1.484       .  S
C1004      O1438   1.272       .  A
Mn1005     O1012   2.094       .  S
Mn1005     O1020   2.098       .  S
Mn1005     O1010   1.953       .  S
C1006      C1062   1.485       .  S
C1006      O1022   1.273       .  A
O1007     Mn1019   1.965       .  S
O1007      C1009   1.222       .  S
C1009      C1323   1.472       .  S
O1010     Mn1456   1.961       .  S
O1011     Mn1014   2.094       .  S
C1016      C1278   1.480       .  S
O1017     Mn1462   2.098   1_545  S
O1018     Mn1447   2.120   1_545  S
O1018      C1023   1.255       .  A
Mn1019     O1022   2.096       .  S
O1021      C1023   1.218       .  S
C1023      C1038   1.483       .  S
C1024      C1025   1.403       .  A
C1024      H1040   1.084       .  S
C1025      H1041   1.083       .  S
C1026      C1036   1.409       .  A
C1026      C1027   1.411   1_455  A
C1027      C1033   1.411       .  A
C1027      C1028   1.415       .  A
C1028      C1030   1.411       .  A
C1028      C1029   1.413   1_655  A
C1030      C1039   1.402       .  A
C1030      C1031   1.404       .  A
C1031      C1032   1.398       .  A
C1031      H1042   1.083       .  S
C1032      C1033   1.403       .  A
C1032      H1043   1.084       .  S
C1033      C1034   1.403       .  A
C1034      C1035   1.410       .  A
C1034      H1044   1.084       .  S
C1035      C1036   1.412   1_655  A
C1037      H1046   1.084       .  S
C1038      C1039   1.407       .  A
C1039      H1047   1.084       .  S
C1048      C1049   1.400       .  A
C1048      C1053   1.404       .  A
C1048      H1064   1.083       .  S
C1049      C1050   1.404       .  A
C1049      H1065   1.083       .  S
C1050      C1060   1.407       .  A
C1050      C1051   1.413   1_455  A
C1051      C1057   1.411       .  A
C1051      C1052   1.413       .  A
C1052      C1054   1.412       .  A
C1052      C1053   1.411   1_655  A
C1053      C1061   1.405       .  A
C1054      C1063   1.403       .  A
C1054      C1055   1.403       .  A
C1055      C1056   1.398       .  A
C1055      H1066   1.084       .  S
C1056      C1057   1.403       .  A
C1056      H1067   1.084       .  S
C1057      C1058   1.402       .  A
C1058      C1059   1.405   1_655  A
C1058      H1068   1.085       .  S
C1059      C1060   1.405       .  A
C1060      H1069   1.084       .  S
C1061      C1062   1.409   1_455  A
C1061      H1070   1.084       .  S
C1062      C1063   1.408       .  A
C1063      H1071   1.084       .  S
C1072      C1073   1.396       .  A
C1072      C1077   1.402       .  A
C1072      H1088   1.083       .  S
C1073      C1074   1.403       .  A
C1073      H1089   1.084       .  S
C1074      C1084   1.398       .  A
C1074      C1075   1.410       .  A
C1075      C1076   1.412       .  A
C1076      C1077   1.411       .  A
C1077      C1085   1.398       .  A
C1078      C1087   1.407       .  A
C1078      C1079   1.404       .  A
C1079      C1080   1.402       .  A
C1079      H1090   1.084       .  S
C1080      C1081   1.405       .  A
C1080      H1091   1.083       .  S
C1081      C1082   1.408       .  A
C1082      H1092   1.084       .  S
C1083      C1084   1.407   1_455  A
C1084      H1093   1.084       .  S
C1085      C1086   1.404       .  A
C1085      H1094   1.085       .  S
C1087      H1095   1.085       .  S
C1096      C1097   1.399       .  A
C1096      C1101   1.403       .  A
C1096      H1112   1.084       .  S
C1097      C1098   1.404       .  A
C1097      H1113   1.083       .  S
C1098      C1108   1.406       .  A
C1098      C1099   1.413   1_655  A
C1099      C1105   1.410       .  A
C1099      C1100   1.414       .  A
C1100      C1102   1.414       .  A
C1100      C1101   1.411   1_455  A
C1101      C1109   1.402       .  A
C1102      C1111   1.408       .  A
C1103      C1104   1.401       .  A
C1103      H1114   1.084       .  S
C1104      H1115   1.084       .  S
C1105      C1106   1.405       .  A
C1106      C1107   1.410   1_455  A
C1106      H1116   1.081       .  S
C1107      C1108   1.409       .  A
C1108      H1117   1.084       .  S
C1109      C1110   1.405   1_655  A
C1109      H1118   1.085       .  S
C1110      C1111   1.405       .  A
C1120      C1121   1.401       .  A
C1120      C1125   1.404       .  A
C1120      H1136   1.083       .  S
C1121      C1122   1.404       .  A
C1121      H1137   1.083       .  S
C1122      C1132   1.406       .  A
C1123      C1129   1.410       .  A
C1123      C1124   1.414       .  A
C1124      C1126   1.410       .  A
C1125      C1133   1.406   1_554  A
C1126      C1135   1.403   1_554  A
C1126      C1127   1.404   1_455  A
C1127      C1128   1.398       .  A
C1127      H1138   1.083       .  S
C1128      C1129   1.403   1_655  A
C1128      H1139   1.084       .  S
C1129      C1130   1.402       .  A
C1130      C1131   1.410       .  A
C1130      H1140   1.083   1_455  S
C1132      H1141   1.083       .  S
C1133      H1142   1.083       .  S
C1134      C1135   1.411       .  A
C1135      H1143   1.083   1_455  S
C1144      C1145   1.402       .  A
C1144      C1149   1.406       .  A
C1144      H1160   1.083       .  S
C1145      C1146   1.405       .  A
C1145      H1161   1.084       .  S
C1146      C1156   1.410       .  A
C1146      C1147   1.414       .  A
C1147      C1153   1.412       .  A
C1147      C1148   1.416       .  A
C1148      C1150   1.412       .  A
C1148      C1149   1.411       .  A
C1149      C1157   1.408       .  A
C1150      C1159   1.405       .  A
C1150      C1612   1.404       .  A
C1151      C1611   1.404   1_545  A
C1151      C1152   1.399       .  A
C1151      H1162   1.084       .  S
C1152      C1614   1.403   1_545  A
C1152      H1163   1.083       .  S
C1153      C1613   1.403       .  A
C1153      C1154   1.404       .  A
C1154      C1155   1.404       .  A
C1154      H1625   1.084       .  S
C1155      C1156   1.406       .  A
C1156      H1165   1.084       .  S
C1157      C1158   1.412       .  A
C1157      H1166   1.084       .  S
C1158      C1159   1.409       .  A
C1159      H1167   1.084       .  S
H1164      C1615   1.084   1_545  S
C1168      C1169   1.396       .  A
C1168      C1173   1.403       .  A
C1168      H1184   1.084       .  S
C1169      C1170   1.402       .  A
C1169      H1185   1.084       .  S
C1170      C1180   1.397       .  A
C1170      C1171   1.411       .  A
C1171      C1177   1.413       .  A
C1171      C1172   1.411       .  A
C1172      C1174   1.411       .  A
C1172      C1173   1.411       .  A
C1173      C1181   1.399       .  A
C1174      C1183   1.406       .  A
C1174      C1175   1.405       .  A
C1175      C1176   1.401       .  A
C1175      H1186   1.083       .  S
C1176      C1177   1.404       .  A
C1176      H1187   1.084       .  S
C1177      C1178   1.406       .  A
C1178      C1179   1.405       .  A
C1178      H1188   1.084       .  S
C1179      C1180   1.404       .  A
C1180      H1189   1.085       .  S
C1181      C1182   1.406       .  A
C1181      H1190   1.084       .  S
C1182      C1183   1.410       .  A
C1183      H1191   1.084       .  S
C1192      C1193   1.397       .  A
C1192      C1197   1.402       .  A
C1192      H1208   1.084       .  S
C1193      C1194   1.403       .  A
C1193      H1209   1.083       .  S
C1194      C1204   1.400       .  A
C1194      C1195   1.411       .  A
C1195      C1201   1.412       .  A
C1195      C1196   1.413       .  A
C1196      C1198   1.413       .  A
C1196      C1197   1.412       .  A
C1197      C1205   1.401       .  A
C1198      C1207   1.408       .  A
C1198      C1199   1.405       .  A
C1199      C1200   1.402       .  A
C1199      H1210   1.083       .  S
C1200      C1201   1.404       .  A
C1200      H1211   1.084       .  S
C1201      C1202   1.407       .  A
C1202      C1203   1.410       .  A
C1202      H1212   1.084       .  S
C1203      C1204   1.408       .  A
C1204      H1213   1.084       .  S
C1205      C1206   1.403       .  A
C1205      H1214   1.085       .  S
C1206      C1207   1.407       .  A
C1207      H1215   1.084       .  S
C1216      C1217   1.404       .  A
C1216      C1221   1.405       .  A
C1216      H1232   1.084       .  S
C1217      C1218   1.406       .  A
C1217      H1233   1.083       .  S
C1218      C1228   1.409       .  A
C1218      C1219   1.410       .  A
C1219      C1225   1.411       .  A
C1219      C1220   1.414       .  A
C1220      C1222   1.409       .  A
C1220      C1221   1.414       .  A
C1221      C1229   1.412       .  A
C1222      C1231   1.397       .  A
C1222      C1223   1.403       .  A
C1223      C1224   1.396       .  A
C1223      H1234   1.083       .  S
C1224      C1225   1.402       .  A
C1224      H1235   1.084       .  S
C1225      C1226   1.401       .  A
C1226      C1227   1.409       .  A
C1226      H1236   1.084       .  S
C1227      C1228   1.412       .  A
C1228      H1237   1.083       .  S
C1229      C1230   1.408       .  A
C1229      H1238   1.084       .  S
C1230      C1231   1.408       .  A
C1231      H1239   1.084       .  S
C1240      C1241   1.399       .  A
C1240      C1245   1.404       .  A
C1240      H1256   1.083       .  S
C1241      C1242   1.404       .  A
C1241      H1257   1.084       .  S
C1242      C1252   1.404       .  A
C1242      C1243   1.411       .  A
C1243      C1249   1.412       .  A
C1243      C1244   1.414       .  A
C1244      C1246   1.412       .  A
C1244      C1245   1.411       .  A
C1245      C1253   1.404   1_554  A
C1246      C1255   1.406   1_554  A
C1246      C1247   1.404       .  A
C1247      C1248   1.401       .  A
C1247      H1258   1.083       .  S
C1248      C1249   1.404       .  A
C1248      H1259   1.083       .  S
C1249      C1250   1.406       .  A
C1250      C1251   1.408       .  A
C1250      H1260   1.084       .  S
C1251      C1252   1.408       .  A
C1252      H1261   1.084       .  S
C1253      C1254   1.410       .  A
C1253      H1262   1.084       .  S
C1254      C1255   1.408       .  A
C1255      H1263   1.084       .  S
C1264      C1265   1.403       .  A
C1264      C1269   1.405       .  A
C1264      H1280   1.084       .  S
C1265      C1266   1.406       .  A
C1265      H1281   1.083       .  S
C1266      C1276   1.410       .  A
C1266      C1267   1.411       .  A
C1267      C1273   1.410       .  A
C1267      C1268   1.415       .  A
C1268      C1270   1.411       .  A
C1268      C1269   1.412       .  A
C1269      C1277   1.410       .  A
C1270      C1279   1.401       .  A
C1270      C1271   1.403       .  A
C1271      C1272   1.397       .  A
C1271      H1282   1.083       .  S
C1272      C1273   1.403       .  A
C1272      H1283   1.084       .  S
C1273      C1274   1.401       .  A
C1274      C1275   1.410       .  A
C1274      H1284   1.084       .  S
C1275      C1276   1.412       .  A
C1276      H1285   1.083       .  S
C1277      C1278   1.408       .  A
C1277      H1286   1.084       .  S
C1278      C1279   1.405       .  A
C1279      H1287   1.084       .  S
C1288      C1289   1.398       .  A
C1288      C1293   1.403       .  A
C1288      H1304   1.084       .  S
C1289      C1290   1.403       .  A
C1289      H1305   1.084       .  S
C1290      C1300   1.400       .  A
C1290      C1291   1.411       .  A
C1291      C1297   1.412       .  A
C1291      C1292   1.411       .  A
C1292      C1294   1.413       .  A
C1292      C1293   1.412       .  A
C1293      C1301   1.401       .  A
C1294      C1303   1.404       .  A
C1294      C1295   1.404       .  A
C1295      C1296   1.399       .  A
C1295      H1306   1.083       .  S
C1296      C1297   1.404       .  A
C1296      H1307   1.084       .  S
C1297      C1298   1.403       .  A
C1298      C1299   1.408       .  A
C1298      H1308   1.084       .  S
C1299      C1300   1.408       .  A
C1300      H1309   1.084       .  S
C1301      C1302   1.403       .  A
C1301      H1310   1.085       .  S
C1302      C1303   1.404       .  A
C1303      H1311   1.084       .  S
C1312      C1313   1.396       .  A
C1312      C1317   1.403       .  A
C1312      H1328   1.084       .  S
C1313      C1314   1.402       .  A
C1313      H1329   1.084       .  S
C1314      C1324   1.398       .  A
C1314      C1315   1.412       .  A
C1315      C1321   1.413       .  A
C1315      C1316   1.412       .  A
C1316      C1318   1.412       .  A
C1316      C1317   1.411       .  A
C1317      C1325   1.399       .  A
C1318      C1327   1.409       .  A
C1318      C1319   1.406       .  A
C1319      C1320   1.402       .  A
C1319      H1330   1.083       .  S
C1320      C1321   1.404       .  A
C1320      H1331   1.084       .  S
C1321      C1322   1.407       .  A
C1322      C1323   1.406       .  A
C1322      H1332   1.085       .  S
C1323      C1324   1.403       .  A
C1324      H1333   1.084       .  S
C1325      C1326   1.406       .  A
C1325      H1334   1.084       .  S
C1326      C1327   1.411       .  A
C1327      H1335   1.084       .  S
C1336      C1337   1.401       .  A
C1336      C1341   1.405       .  A
C1336      H1352   1.084       .  S
C1337      C1338   1.405       .  A
C1337      H1353   1.083       .  S
C1338      C1348   1.407       .  A
C1338      C1339   1.411       .  A
C1339      C1345   1.411       .  A
C1339      C1340   1.415       .  A
C1340      C1342   1.412       .  A
C1340      C1341   1.413       .  A
C1341      C1349   1.408       .  A
C1342      C1351   1.404       .  A
C1342      C1343   1.403       .  A
C1343      C1344   1.399       .  A
C1343      H1354   1.084       .  S
C1344      C1345   1.404       .  A
C1344      H1355   1.083       .  S
C1345      C1346   1.404       .  A
C1346      C1347   1.409       .  A
C1346      H1356   1.084       .  S
C1347      C1348   1.411       .  A
C1348      H1357   1.084       .  S
C1349      C1350   1.406       .  A
C1349      H1358   1.084       .  S
C1350      C1351   1.405       .  A
C1351      H1359   1.085       .  S
C1360      C1361   1.399       .  A
C1360      C1365   1.404       .  A
C1360      H1376   1.084       .  S
C1361      C1362   1.404       .  A
C1361      H1377   1.084       .  S
C1362      C1372   1.404       .  A
C1362      C1363   1.411       .  A
C1363      C1369   1.411       .  A
C1363      C1364   1.414       .  A
C1364      C1366   1.412       .  A
C1364      C1365   1.411       .  A
C1365      C1373   1.403   1_554  A
C1366      C1375   1.406   1_554  A
C1366      C1367   1.404       .  A
C1367      C1368   1.400       .  A
C1367      H1378   1.083       .  S
C1368      C1369   1.404       .  A
C1368      H1379   1.083       .  S
C1369      C1370   1.406       .  A
C1370      C1371   1.408       .  A
C1370      H1380   1.084       .  S
C1371      C1372   1.408       .  A
C1372      H1381   1.084       .  S
C1373      C1374   1.409       .  A
C1373      H1382   1.084       .  S
C1374      C1375   1.407       .  A
C1375      H1383   1.084       .  S
C1384      C1385   1.401       .  A
C1384      C1389   1.402       .  A
C1384      C1811   1.482       .  S
C1385      C1386   1.408       .  A
C1385      H1390   1.084       .  S
C1386      C1387   1.407       .  A
C1386      C1787   1.490       .  S
C1387      C1388   1.410       .  A
C1387      H1391   1.083       .  S
C1388      C1389   1.409       .  A
C1388      C1832   1.489       .  S
C1389      H1392   1.084       .  S
C1393      C1394   1.399       .  A
C1393      C1398   1.398       .  A
C1393      C1763   1.475       .  S
C1394      C1395   1.408       .  A
C1394      H1399   1.083       .  S
C1395      C1396   1.411       .  A
C1395      C1736   1.497       .  S
C1396      C1397   1.413       .  A
C1396      H1400   1.083       .  S
C1397      C1398   1.406       .  A
C1397      C1835   1.489       .  S
C1398      H1401   1.084       .  S
C1402      C1403   1.402       .  A
C1402      C1407   1.402       .  A
C1402      C1667   1.480       .  S
C1403      C1404   1.409       .  A
C1403      H1408   1.083       .  S
C1404      C1405   1.410       .  A
C1404      C1712   1.490       .  S
C1405      C1406   1.408       .  A
C1405      H1409   1.083       .  S
C1406      C1407   1.407       .  A
C1406      C1688   1.497       .  S
C1407      H1410   1.083       .  S
C1411      C1412   1.406       .  A
C1411      C1416   1.401       .  A
C1411      C1616   1.481       .  S
C1412      C1413   1.412       .  A
C1412      H1417   1.083       .  S
C1413      C1414   1.408       .  A
C1413      C1715   1.491       .  S
C1414      C1415   1.404       .  A
C1414      H1418   1.083       .  S
C1415      C1416   1.406       .  A
C1415      C1643   1.488       .  S
C1416      H1419   1.084       .  S
C1420      C1421   1.399       .  A
C1420      C1425   1.401       .  A
C1420      C1571   1.481       .  S
C1421      C1422   1.406       .  A
C1421      H1426   1.084       .  S
C1422      C1423   1.407       .  A
C1422      C1544   1.492       .  S
C1423      C1424   1.412       .  A
C1423      H1427   1.082       .  S
C1424      C1425   1.412       .  A
C1424      C1592   1.496       .  S
C1425      H1428   1.083       .  S
C1429      C1430   1.401       .  A
C1429      C1434   1.400   1_455  A
C1429      C1520   1.481       .  S
C1430      C1431   1.411       .  A
C1430      H1435   1.083       .  S
C1431      C1432   1.414       .  A
C1431      C1595   1.498       .  S
C1432      C1433   1.410   1_455  A
C1432      H1436   1.082       .  S
C1433      C1434   1.407       .  A
C1433      C1496   1.498       .  S
C1434      H1437   1.083       .  S
O1438     Mn1464   2.086       .  S
C1439      C1760   1.481       .  S
C1439      O1472   1.272       .  A
C1439      O1469   1.270       .  A
O1440     Mn1447   2.162       .  S
O1440     Mn1458   2.137       .  S
O1440     Mn1462   2.173       .  S
O1441     Mn1475   2.104       .  S
O1441      C1451   1.274       .  A
O1442     Mn1458   2.098       .  S
O1442      C1465   1.272       .  A
O1443     Mn1462   2.095       .  S
O1443      C1470   1.252       .  A
O1444     Mn1464   1.971       .  S
O1444      C1460   1.220       .  S
C1445      C1691   1.484       .  S
C1445      O1448   1.254       .  A
C1445      O1471   1.216       .  S
O1446     Mn1447   2.174       .  S
O1446     Mn1480   2.127       .  S
O1446     Mn1462   2.172       .  S
Mn1447     O1452   2.106       .  S
O1449     Mn1456   2.100       .  S
O1449      C1451   1.274       .  A
C1450      C1640   1.472       .  S
C1450      O1476   1.252       .  A
C1450      O1463   1.218       .  S
C1451      C1808   1.490       .  S
O1452      C1477   1.254       .  A
O1453     Mn1456   2.118       .  S
O1453     Mn1475   2.131       .  S
O1454     Mn1458   1.965       .  S
O1454     Mn1480   1.968       .  S
O1454      C1477   1.222       .  S
C1455      C1568   1.489       .  S
C1455      O1457   1.273       .  A
Mn1456     O1469   2.083       .  S
O1457     Mn1480   2.102       .  S
Mn1458     O1474   2.102       .  S
Mn1458     O1468   1.967       .  S
O1459      C1461   1.275       .  A
C1460      C1547   1.474       .  S
C1460      O1478   1.252       .  A
C1461      C1619   1.493       .  S
C1461      O1474   1.274       .  A
O1463     Mn1466   1.960       .  S
Mn1464     O1482   1.961       .  S
C1465      C1664   1.484       .  S
Mn1466     O1473   2.094       .  S
Mn1466     O1481   2.098       .  S
Mn1466     O1471   1.953       .  S
C1467      C1523   1.485       .  S
C1467      O1483   1.273       .  A
O1468     Mn1480   1.965       .  S
O1468      C1470   1.222       .  S
C1470      C1784   1.472       .  S
O1472     Mn1475   2.094       .  S
C1477      C1739   1.480       .  S
O1479      C1484   1.255       .  A
Mn1480     O1483   2.096       .  S
O1482      C1484   1.218       .  S
C1484      C1499   1.483       .  S
C1485      C1486   1.403       .  A
C1485      H1501   1.084       .  S
C1486      H1502   1.083       .  S
C1487      C1497   1.409       .  A
C1487      C1488   1.411   1_455  A
C1488      C1494   1.411       .  A
C1488      C1489   1.415       .  A
C1489      C1491   1.411       .  A
C1489      C1490   1.413   1_655  A
C1491      C1500   1.402       .  A
C1491      C1492   1.404       .  A
C1492      C1493   1.398       .  A
C1492      H1503   1.083       .  S
C1493      C1494   1.403       .  A
C1493      H1504   1.084       .  S
C1494      C1495   1.403       .  A
C1495      C1496   1.410       .  A
C1495      H1505   1.084       .  S
C1496      C1497   1.412   1_655  A
C1498      H1507   1.084       .  S
C1499      C1500   1.407       .  A
C1500      H1508   1.084       .  S
C1509      C1510   1.400       .  A
C1509      C1514   1.404       .  A
C1509      H1525   1.083       .  S
C1510      C1511   1.404       .  A
C1510      H1526   1.083       .  S
C1511      C1521   1.407       .  A
C1511      C1512   1.413   1_455  A
C1512      C1518   1.411       .  A
C1512      C1513   1.413       .  A
C1513      C1515   1.412       .  A
C1513      C1514   1.411   1_655  A
C1514      C1522   1.405       .  A
C1515      C1524   1.403       .  A
C1515      C1516   1.403       .  A
C1516      C1517   1.398       .  A
C1516      H1527   1.084       .  S
C1517      C1518   1.403       .  A
C1517      H1528   1.084       .  S
C1518      C1519   1.402       .  A
C1519      C1520   1.405   1_655  A
C1519      H1529   1.085       .  S
C1520      C1521   1.405       .  A
C1521      H1530   1.084       .  S
C1522      C1523   1.409   1_455  A
C1522      H1531   1.084       .  S
C1523      C1524   1.408       .  A
C1524      H1532   1.084       .  S
C1533      C1534   1.396       .  A
C1533      C1538   1.402       .  A
C1533      H1549   1.083       .  S
C1534      C1535   1.403       .  A
C1534      H1550   1.084       .  S
C1535      C1545   1.398       .  A
C1535      C1536   1.410       .  A
C1536      C1537   1.412       .  A
C1537      C1538   1.411       .  A
C1538      C1546   1.398       .  A
C1539      C1548   1.407       .  A
C1539      C1540   1.404       .  A
C1540      C1541   1.402       .  A
C1540      H1551   1.084       .  S
C1541      C1542   1.405       .  A
C1541      H1552   1.083       .  S
C1542      C1543   1.408       .  A
C1543      H1553   1.084       .  S
C1544      C1545   1.407   1_455  A
C1545      H1554   1.084       .  S
C1546      C1547   1.404       .  A
C1546      H1555   1.085       .  S
C1548      H1556   1.085       .  S
C1557      C1558   1.399       .  A
C1557      C1562   1.403       .  A
C1557      H1573   1.084       .  S
C1558      C1559   1.404       .  A
C1558      H1574   1.083       .  S
C1559      C1569   1.406       .  A
C1559      C1560   1.413   1_655  A
C1560      C1566   1.410       .  A
C1560      C1561   1.414       .  A
C1561      C1563   1.414       .  A
C1561      C1562   1.411   1_455  A
C1562      C1570   1.402       .  A
C1563      C1572   1.408       .  A
C1564      C1565   1.401       .  A
C1564      H1575   1.084       .  S
C1565      H1576   1.084       .  S
C1566      C1567   1.405       .  A
C1567      C1568   1.410   1_455  A
C1567      H1577   1.081       .  S
C1568      C1569   1.409       .  A
C1569      H1578   1.084       .  S
C1570      C1571   1.405   1_655  A
C1570      H1579   1.085       .  S
C1571      C1572   1.405       .  A
C1581      C1582   1.401       .  A
C1581      C1586   1.404       .  A
C1581      H1597   1.083       .  S
C1582      C1583   1.404       .  A
C1582      H1598   1.083       .  S
C1583      C1593   1.406       .  A
C1584      C1590   1.410       .  A
C1584      C1585   1.414       .  A
C1585      C1587   1.410       .  A
C1586      C1594   1.406   1_554  A
C1587      C1596   1.403   1_554  A
C1587      C1588   1.404   1_455  A
C1588      C1589   1.398       .  A
C1588      H1599   1.083       .  S
C1589      C1590   1.403   1_655  A
C1589      H1600   1.084       .  S
C1590      C1591   1.402       .  A
C1591      C1592   1.410       .  A
C1591      H1601   1.083   1_455  S
C1593      H1602   1.083       .  S
C1594      H1603   1.083       .  S
C1595      C1596   1.411       .  A
C1596      H1604   1.083   1_455  S
C1605      C1606   1.402       .  A
C1605      C1610   1.406       .  A
C1605      H1621   1.083       .  S
C1606      C1607   1.405       .  A
C1606      H1622   1.084       .  S
C1607      C1617   1.410       .  A
C1607      C1608   1.414       .  A
C1608      C1614   1.412       .  A
C1608      C1609   1.416       .  A
C1609      C1611   1.412       .  A
C1609      C1610   1.411       .  A
C1610      C1618   1.408       .  A
C1611      C1620   1.405       .  A
C1612      C1613   1.399       .  A
C1612      H1623   1.084       .  S
C1613      H1624   1.083       .  S
C1614      C1615   1.404       .  A
C1615      C1616   1.404       .  A
C1616      C1617   1.406       .  A
C1617      H1626   1.084       .  S
C1618      C1619   1.412       .  A
C1618      H1627   1.084       .  S
C1619      C1620   1.409       .  A
C1620      H1628   1.084   1_565  S
C1629      C1630   1.396       .  A
C1629      C1634   1.403   1_545  A
C1629      H1645   1.084       .  S
C1630      C1631   1.402   1_545  A
C1630      H1646   1.084       .  S
C1631      C1641   1.397       .  A
C1631      C1632   1.411       .  A
C1632      C1638   1.413       .  A
C1632      C1633   1.411       .  A
C1633      C1635   1.411       .  A
C1633      C1634   1.411       .  A
C1634      C1642   1.399       .  A
C1635      C1644   1.406       .  A
C1635      C1636   1.405       .  A
C1636      C1637   1.401       .  A
C1636      H1647   1.083       .  S
C1637      C1638   1.404       .  A
C1637      H1648   1.084       .  S
C1638      C1639   1.406       .  A
C1639      C1640   1.405       .  A
C1639      H1649   1.084       .  S
C1640      C1641   1.404       .  A
C1641      H1650   1.085   1_565  S
C1642      C1643   1.406       .  A
C1642      H1651   1.084       .  S
C1643      C1644   1.410       .  A
C1644      H1652   1.084       .  S
C1653      C1654   1.397       .  A
C1653      C1658   1.402   1_545  A
C1653      H1669   1.084       .  S
C1654      C1655   1.403   1_545  A
C1654      H1670   1.083       .  S
C1655      C1665   1.400       .  A
C1655      C1656   1.411       .  A
C1656      C1662   1.412       .  A
C1656      C1657   1.413       .  A
C1657      C1659   1.413       .  A
C1657      C1658   1.412       .  A
C1658      C1666   1.401       .  A
C1659      C1668   1.408       .  A
C1659      C1660   1.405       .  A
C1660      C1661   1.402       .  A
C1660      H1671   1.083       .  S
C1661      C1662   1.404       .  A
C1661      H1672   1.084       .  S
C1662      C1663   1.407       .  A
C1663      C1664   1.410       .  A
C1663      H1673   1.084       .  S
C1664      C1665   1.408       .  A
C1665      H1674   1.084   1_565  S
C1666      C1667   1.403       .  A
C1666      H1675   1.085   1_565  S
C1667      C1668   1.407       .  A
C1668      H1676   1.084       .  S
C1677      C1678   1.404       .  A
C1677      C1682   1.405       .  A
C1677      H1693   1.084   1_565  S
C1678      C1679   1.406       .  A
C1678      H1694   1.083   1_565  S
C1679      C1689   1.409       .  A
C1679      C1680   1.410       .  A
C1680      C1686   1.411       .  A
C1680      C1681   1.414       .  A
C1681      C1683   1.409       .  A
C1681      C1682   1.414       .  A
C1682      C1690   1.412       .  A
C1683      C1692   1.397       .  A
C1683      C1684   1.403       .  A
C1684      C1685   1.396       .  A
C1684      H1695   1.083       .  S
C1685      C1686   1.402       .  A
C1685      H1696   1.084       .  S
C1686      C1687   1.401       .  A
C1687      C1688   1.409       .  A
C1687      H1697   1.084       .  S
C1688      C1689   1.412       .  A
C1689      H1698   1.083       .  S
C1690      C1691   1.408       .  A
C1690      H1699   1.084       .  S
C1691      C1692   1.408       .  A
C1692      H1700   1.084       .  S
C1701      C1702   1.399       .  A
C1701      C1706   1.404       .  A
C1701      H1717   1.083   1_565  S
C1702      C1703   1.404       .  A
C1702      H1718   1.084   1_565  S
C1703      C1713   1.404       .  A
C1703      C1704   1.411       .  A
C1704      C1710   1.412       .  A
C1704      C1705   1.414       .  A
C1705      C1707   1.412       .  A
C1705      C1706   1.411       .  A
C1706      C1714   1.404   1_554  A
C1707      C1716   1.406   1_554  A
C1707      C1708   1.404       .  A
C1708      C1709   1.401       .  A
C1708      H1719   1.083       .  S
C1709      C1710   1.404       .  A
C1709      H1720   1.083       .  S
C1710      C1711   1.406       .  A
C1711      C1712   1.408       .  A
C1711      H1721   1.084       .  S
C1712      C1713   1.408       .  A
C1713      H1722   1.084       .  S
C1714      C1715   1.410       .  A
C1714      H1723   1.084       .  S
C1715      C1716   1.408       .  A
C1716      H1724   1.084       .  S
C1725      C1726   1.403       .  A
C1725      C1730   1.405       .  A
C1725      H1741   1.084       .  S
C1726      C1727   1.406       .  A
C1726      H1742   1.083       .  S
C1727      C1737   1.410       .  A
C1727      C1728   1.411       .  A
C1728      C1734   1.410       .  A
C1728      C1729   1.415       .  A
C1729      C1731   1.411       .  A
C1729      C1730   1.412       .  A
C1730      C1738   1.410       .  A
C1731      C1740   1.401       .  A
C1731      C1732   1.403       .  A
C1732      C1733   1.397       .  A
C1732      H1743   1.083       .  S
C1733      C1734   1.403       .  A
C1733      H1744   1.084       .  S
C1734      C1735   1.401       .  A
C1735      C1736   1.410       .  A
C1735      H1745   1.084       .  S
C1736      C1737   1.412       .  A
C1737      H1746   1.083       .  S
C1738      C1739   1.408       .  A
C1738      H1747   1.084       .  S
C1739      C1740   1.405       .  A
C1740      H1748   1.084       .  S
C1749      C1750   1.398       .  A
C1749      C1754   1.403       .  A
C1749      H1765   1.084       .  S
C1750      C1751   1.403       .  A
C1750      H1766   1.084       .  S
C1751      C1761   1.400       .  A
C1751      C1752   1.411       .  A
C1752      C1758   1.412       .  A
C1752      C1753   1.411       .  A
C1753      C1755   1.413       .  A
C1753      C1754   1.412       .  A
C1754      C1762   1.401       .  A
C1755      C1764   1.404       .  A
C1755      C1756   1.404       .  A
C1756      C1757   1.399       .  A
C1756      H1767   1.083       .  S
C1757      C1758   1.404       .  A
C1757      H1768   1.084       .  S
C1758      C1759   1.403       .  A
C1759      C1760   1.408       .  A
C1759      H1769   1.084       .  S
C1760      C1761   1.408       .  A
C1761      H1770   1.084       .  S
C1762      C1763   1.403       .  A
C1762      H1771   1.085       .  S
C1763      C1764   1.404       .  A
C1764      H1772   1.084       .  S
C1773      C1774   1.396       .  A
C1773      C1778   1.403       .  A
C1773      H1789   1.084       .  S
C1774      C1775   1.402       .  A
C1774      H1790   1.084       .  S
C1775      C1785   1.398       .  A
C1775      C1776   1.411       .  A
C1776      C1782   1.413       .  A
C1776      C1777   1.412       .  A
C1777      C1779   1.412       .  A
C1777      C1778   1.411       .  A
C1778      C1786   1.399       .  A
C1779      C1788   1.409       .  A
C1779      C1780   1.406       .  A
C1780      C1781   1.402       .  A
C1780      H1791   1.083       .  S
C1781      C1782   1.404       .  A
C1781      H1792   1.084       .  S
C1782      C1783   1.407       .  A
C1783      C1784   1.406       .  A
C1783      H1793   1.085       .  S
C1784      C1785   1.403       .  A
C1785      H1794   1.084       .  S
C1786      C1787   1.406       .  A
C1786      H1795   1.084       .  S
C1787      C1788   1.411       .  A
C1788      H1796   1.084       .  S
C1797      C1798   1.401       .  A
C1797      C1802   1.405       .  A
C1797      H1813   1.084       .  S
C1798      C1799   1.405       .  A
C1798      H1814   1.083       .  S
C1799      C1809   1.407       .  A
C1799      C1800   1.411       .  A
C1800      C1806   1.411       .  A
C1800      C1801   1.415       .  A
C1801      C1803   1.412       .  A
C1801      C1802   1.413       .  A
C1802      C1810   1.408       .  A
C1803      C1812   1.404       .  A
C1803      C1804   1.403       .  A
C1804      C1805   1.399       .  A
C1804      H1815   1.084       .  S
C1805      C1806   1.404       .  A
C1805      H1816   1.083       .  S
C1806      C1807   1.404       .  A
C1807      C1808   1.409       .  A
C1807      H1817   1.084       .  S
C1808      C1809   1.411       .  A
C1809      H1818   1.084       .  S
C1810      C1811   1.406       .  A
C1810      H1819   1.084       .  S
C1811      C1812   1.405       .  A
C1812      H1820   1.085       .  S
C1821      C1822   1.399       .  A
C1821      C1826   1.404       .  A
C1821      H1837   1.084       .  S
C1822      C1823   1.404       .  A
C1822      H1838   1.084       .  S
C1823      C1833   1.404       .  A
C1823      C1824   1.411       .  A
C1824      C1830   1.411       .  A
C1824      C1825   1.414       .  A
C1825      C1827   1.412       .  A
C1825      C1826   1.411       .  A
C1826      C1834   1.403   1_554  A
C1827      C1836   1.406   1_554  A
C1827      C1828   1.404       .  A
C1828      C1829   1.400       .  A
C1828      H1839   1.083       .  S
C1829      C1830   1.404       .  A
C1829      H1840   1.083       .  S
C1830      C1831   1.406       .  A
C1831      C1832   1.408       .  A
C1831      H1841   1.084       .  S
C1832      C1833   1.408       .  A
C1833      H1842   1.084       .  S
C1834      C1835   1.409       .  A
C1834      H1843   1.084       .  S
C1835      C1836   1.407       .  A
C1836      H1844   1.084       .  S
