geometry optimzed in LAMMPS
_audit_creation_date              2020-11-30 
_audit_creation_method            'lammps2cif' 
_symmetry_space_group_name_H-M    'P1' 
_symmetry_Int_Tables_number       1 
_symmetry_cell_setting            triclinic 
loop_ 
_symmetry_equiv_pos_as_xyz 
  x,y,z 
_cell_length_a                    26.134714435202923 
_cell_length_b                    26.32317007910901 
_cell_length_c                    26.470229102610418 
_cell_angle_alpha                 89.29332740948878 
_cell_angle_beta                  90.12213204745683 
_cell_angle_gamma                 89.5751599443872 
loop_ 
_atom_site_label 
_atom_site_type_symbol 
_atom_site_fract_x 
_atom_site_fract_y 
_atom_site_fract_z 
_atom_site_charge 
C1          C  0.88419646  0.86798005  0.85284497    -0.03720
N2          N  0.76328975  0.91871569  0.46412375    -0.06870
N3          N  0.72590700  0.93317230  0.49458611    -0.59470
N4          N  0.79889423  0.95248099  0.34936151    -0.07030
N5          N  0.80452539  0.97325797  0.30504124    -0.61600
N6          N  0.76139107  0.91957072  0.34877012    -0.06630
N7          N  0.73939588  0.91871099  0.30389816    -0.59450
N8          N  0.80040619  0.95257191  0.46442231    -0.06310
N9          N  0.78859927  0.99002045  0.49532497    -0.61950
C10         C  0.74219443  0.97753373  0.51427572     0.94820
C11         C  0.76788039  0.95182490  0.27727744     0.94600
N12         N  0.94971236  0.92765343  0.33371283    -0.07540
N13         N  0.98247357  0.93994988  0.29707788    -0.60050
N14         N  0.92520066  0.95501222  0.45339711    -0.05660
N15         N  0.94828357  0.99911335  0.45628237    -0.61300
N16         N  0.96010927  0.91857979  0.44878133    -0.07570
N17         N  0.00606235  0.93854194  0.44957173    -0.60320
N18         N  0.91563381  0.96389899  0.33912152    -0.05300
N19         N  0.92487103  0.00184810  0.30651284    -0.61390
Mn20       Mn  0.85876313  0.95653517  0.40316457     1.18440
C21         C  0.96662871  0.98644622  0.27957463     0.96910
C22         C  0.99836633  0.98886346  0.45133026     0.97570
N23         N  0.75222826  0.80279550  0.34266700    -0.07590
N24         N  0.71707098  0.79512099  0.30719272    -0.63900
N25         N  0.79547908  0.76054129  0.45602308    -0.06390
N26         N  0.77631954  0.71458642  0.45337106    -0.64570
N27         N  0.75757047  0.79459134  0.45599123    -0.07090
N28         N  0.71368480  0.77080304  0.45115903    -0.64160
N29         N  0.78626340  0.76613892  0.34213149    -0.05990
N30         N  0.77486511  0.73297681  0.30663110    -0.64850
Mn31       Mn  0.75780517  0.86018903  0.40414373     1.10660
C32         C  0.73172420  0.75132233  0.28397852     0.98130
C33         C  0.72616251  0.72172574  0.44597046     0.98210
N34         N  0.95518747  0.79718601  0.44550959    -0.07100
N35         N  0.99372492  0.78487608  0.47621964    -0.62470
N36         N  0.89859025  0.77628481  0.33168073    -0.06420
N37         N  0.88304224  0.76321093  0.28636695    -0.59200
N38         N  0.93135211  0.81355280  0.32844736    -0.07730
N39         N  0.93719663  0.82712106  0.28098438    -0.62040
N40         N  0.91925357  0.76246110  0.44851000    -0.06720
N41         N  0.93304062  0.72602337  0.48114120    -0.59230
Mn42       Mn  0.95044880  0.86236872  0.38982268     1.20190
Mn43       Mn  0.85173045  0.76544030  0.39620199     1.10090
Cl44       Cl  0.85479619  0.86118017  0.40047737    -0.87200
C45         C  0.97954121  0.74052041  0.49884299     0.95140
C46         C  0.90866628  0.79402670  0.25445632     0.94930
N47         N  0.90032379  0.44747084  0.92860683    -0.07350
N48         N  0.91566773  0.49440394  0.93075247    -0.59470
N49         N  0.91529152  0.32927712  0.98548552    -0.07030
N50         N  0.92736273  0.29369798  0.01938079    -0.61600
N51         N  0.95510175  0.34127444  0.95831288    -0.06630
N52         N  0.99466361  0.31214143  0.97327282    -0.59450
N53         N  0.87073167  0.43773744  0.96736275    -0.06310
N54         N  0.86546279  0.47805509  0.99565305    -0.61950
C55         C  0.90006030  0.51117048  0.97635774     0.94820
C56         C  0.97722358  0.28192955  0.01199393     0.94600
N57         N  0.77836171  0.29221610  0.91524829    -0.07540
N58         N  0.78608447  0.25152672  0.88757438    -0.60050
N59         N  0.76556463  0.40074339  0.98880609    -0.05660
N60         N  0.75790776  0.43551644  0.02387548    -0.61300
N61         N  0.72616966  0.39789279  0.95852861    -0.07570
N62         N  0.69113261  0.43229526  0.97219601    -0.60320
N63         N  0.80982998  0.29185669  0.95430227    -0.05300
N64         N  0.83967312  0.25108857  0.95273536    -0.61390
Mn65       Mn  0.83943948  0.36411480  0.97656716     1.18440
C66         C  0.82505166  0.22660391  0.91053695     0.96910
C67         C  0.71146454  0.45558940  0.01338762     0.97570
N68         N  0.89367931  0.33005244  0.86703477    -0.07590
N69         N  0.91615722  0.28700032  0.87998577    -0.63900
N70         N  0.91261202  0.42795621  0.77421591    -0.06390
N71         N  0.93032126  0.45475255  0.73501449    -0.64570
N72         N  0.94434590  0.43207457  0.81286629    -0.07090
N73         N  0.98397405  0.46035294  0.79936828    -0.64160
N74         N  0.87204938  0.32515289  0.82265188    -0.05990
N75         N  0.88141570  0.27987492  0.80474359    -0.64850
Mn76       Mn  0.94383061  0.38988206  0.88692570     1.10660
C77         C  0.90991733  0.25703093  0.84061163     0.98130
C78         C  0.97524977  0.47495009  0.75090950     0.98210
N79         N  0.78753064  0.42094903  0.87269474    -0.07100
N80         N  0.77730496  0.46379499  0.89632091    -0.62470
N81         N  0.76984872  0.33234035  0.77065775    -0.06420
N82         N  0.75758063  0.30258714  0.73199245    -0.59200
N83         N  0.73788073  0.32364586  0.80824453    -0.07730
N84         N  0.70430985  0.28862211  0.79521004    -0.62040
N85         N  0.81808052  0.43015785  0.83470286    -0.06720
N86         N  0.82900495  0.47892175  0.83266135    -0.59230
Mn87       Mn  0.73563254  0.35854801  0.88404926     1.20190
Mn88       Mn  0.84051201  0.38171872  0.77431562     1.10090
Cl89       Cl  0.84010834  0.37344358  0.87791510    -0.87200
C90         C  0.80347251  0.49953922  0.87150304     0.95140
C91         C  0.71611202  0.27544320  0.74746304     0.94930
N92         N  0.43301121  0.78107785  0.93661900    -0.07350
N93         N  0.46120970  0.74276934  0.95482475    -0.59470
N94         N  0.33175362  0.82238362  0.97872114    -0.07030
N95         N  0.30378786  0.82699200  0.01798214    -0.61600
N96         N  0.31775942  0.78461227  0.94964772    -0.06630
N97         N  0.27682874  0.76297864  0.96999224    -0.59450
N98         N  0.44023072  0.82197975  0.96384269    -0.06310
N99         N  0.47254050  0.81120244  0.00161875    -0.61950
C100        C  0.48636482  0.76169736  0.99532846     0.94820
C101        C  0.27040192  0.79045481  0.01320863     0.94600
N102        N  0.29722634  0.96701359  0.93559538    -0.07540
N103        N  0.25903327  0.99749327  0.94933147    -0.60050
N104        N  0.42677484  0.94008937  0.93408029    -0.05660
N105        N  0.47608199  0.94464299  0.94026515    -0.61300
N106        N  0.41078354  0.97102995  0.89830573    -0.07570
N107        N  0.44919609  0.99560293  0.87874456    -0.60320
N108        N  0.31232387  0.93864074  0.97383054    -0.05300
N109        N  0.28352486  0.94960440  0.01415213    -0.61390
Mn110      Mn  0.37919545  0.88196106  0.96358190     1.18440
C111        C  0.24964781  0.98699939  0.99890488     0.96910
C112        C  0.48909953  0.98327687  0.90845580     0.97570
N113        N  0.30454671  0.76018754  0.82343667    -0.07590
N114        N  0.27601020  0.71922457  0.81446280    -0.63900
N115        N  0.41600928  0.81935939  0.78305338    -0.06390
N116        N  0.45900933  0.84359512  0.77389422    -0.64570
N117        N  0.42330647  0.78520189  0.81990577    -0.07090
N118        N  0.47148454  0.78631032  0.83481556    -0.64160
N119        N  0.29952553  0.79244916  0.78543727    -0.05990
N120        N  0.26681996  0.77524709  0.75145502    -0.64850
Mn121      Mn  0.36750648  0.77421962  0.88140585     1.10660
C122        C  0.25149454  0.72971394  0.76965769     0.98130
C123        C  0.49275894  0.82354301  0.80705145     0.98210
N124        N  0.38273716  0.97362355  0.79235625    -0.07100
N125        N  0.41261709  0.01235774  0.77976451    -0.62470
N126        N  0.27345219  0.90355903  0.79243950    -0.06420
N127        N  0.22988205  0.87902088  0.79238888    -0.59200
N128        N  0.27055634  0.94169115  0.82421001    -0.07730
N129        N  0.22474606  0.94366680  0.84496607    -0.62040
N130        N  0.38876746  0.93587823  0.76126728    -0.06720
N131        N  0.42270716  0.94907720  0.72577061    -0.59230
Mn132      Mn  0.33881486  0.96565678  0.86252413     1.20190
Mn133      Mn  0.34469716  0.86281186  0.77710985     1.10090
Cl134      Cl  0.35697197  0.87048606  0.87136979    -0.87200
C135        C  0.43799428  0.99711453  0.73818045     0.95140
C136        C  0.19942658  0.90409948  0.82494788     0.94930
C137        C  0.40053405  0.39218179  0.84750326    -0.03720
C138        C  0.39553619  0.88295741  0.36344751    -0.03720
C139        C  0.89152424  0.37028202  0.36242315    -0.03720
N140        N  0.18578866  0.07537522  0.68515883    -0.07350
N141        N  0.18803273  0.06403697  0.73411284    -0.59470
N142        N  0.21547389  0.00863782  0.57677146    -0.07030
N143        N  0.22902051  0.97878659  0.53915275    -0.61600
N144        N  0.25375145  0.03792706  0.59010314    -0.06630
N145        N  0.29348410  0.02872152  0.55986716    -0.59450
N146        N  0.14247624  0.06041227  0.66609415    -0.06310
N147        N  0.11407926  0.04254220  0.70282425    -0.61950
C148        C  0.14209916  0.04278066  0.74435959     0.94820
C149        C  0.27742667  0.99161854  0.52833589     0.94600
N150        N  0.08667907  0.09562966  0.54280549    -0.07540
N151        N  0.08604873  0.12086201  0.49973596    -0.60050
N152        N  0.05768421  0.99836984  0.63459447    -0.05660
N153        N  0.04697557  0.96350863  0.66987526    -0.61300
N154        N  0.02431982  0.03564381  0.63723491    -0.07570
N155        N  0.99050989  0.02587722  0.67369664    -0.60320
N156        N  0.11889492  0.05781714  0.54067378    -0.05300
N157        N  0.14045800  0.05625937  0.49561436    -0.61390
Mn158      Mn  0.13644792  0.00872431  0.60363004     1.18440
C159        C  0.11910681  0.09580083  0.46969033     0.96910
C160        C  0.00484304  0.98063516  0.69460652     0.97570
N161        N  0.20367135  0.13268405  0.57407293    -0.07590
N162        N  0.22823592  0.12538495  0.53149070    -0.63900
N163        N  0.20823234  0.21921169  0.67351696    -0.06390
N164        N  0.22210226  0.25980859  0.69962391    -0.64570
N165        N  0.24212890  0.18218398  0.68045988    -0.07090
N166        N  0.27903584  0.19819292  0.71115623    -0.64160
N167        N  0.17049756  0.16985491  0.56864417    -0.05990
N168        N  0.17382752  0.18839334  0.52251275    -0.64850
Mn169      Mn  0.24476328  0.10716787  0.63896334     1.10660
C170        C  0.21267114  0.16280739  0.50067846     0.98130
C171        C  0.26644146  0.24681949  0.72329624     0.98210
N172        N  0.07194855  0.13333506  0.67031194    -0.07100
N173        N  0.05111661  0.11685899  0.71212453    -0.62470
N174        N  0.06666490  0.22541755  0.57623841    -0.06420
N175        N  0.05339973  0.26503717  0.54709480    -0.59200
N176        N  0.03307579  0.18901987  0.57015145    -0.07730
N177        N  0.99757791  0.20308895  0.53699040    -0.62040
N178        N  0.10183228  0.17161871  0.67951470    -0.06720
N179        N  0.09889064  0.18342025  0.72758731    -0.59230
Mn180      Mn  0.03460824  0.11235289  0.60268235     1.20190
Mn181      Mn  0.13776929  0.21863971  0.62463034     1.10090
Cl182      Cl  0.13988437  0.11307953  0.61968922    -0.87200
C183        C  0.06551598  0.14961234  0.74688522     0.95140
C184        C  0.00995335  0.25068263  0.52264906     0.94930
N185        N  0.10606093  0.69055080  0.19756352    -0.07350
N186        N  0.10952941  0.73559817  0.21807202    -0.59470
N187        N  0.04340960  0.58071457  0.19310290    -0.07030
N188        N  0.00550373  0.54939885  0.20487966    -0.61600
N189        N  0.07576111  0.58303200  0.23097120    -0.06630
N190        N  0.06081773  0.55300077  0.26881609    -0.59450
N191        N  0.07036815  0.69080167  0.16257795    -0.06310
N192        N  0.05151773  0.73626598  0.15623263    -0.61950
C193        C  0.07332104  0.76322126  0.19365203     0.94820
C194        C  0.01654801  0.53233456  0.25228053     0.94600
N195        N  0.09915347  0.55535935  0.04538177    -0.07540
N196        N  0.10190678  0.50800935  0.02991389    -0.60050
N197        N  0.03693410  0.67149711  0.04828247    -0.05660
N198        N  0.99890857  0.70439098  0.03801653    -0.61300
N199        N  0.06586961  0.66615953  0.00814353    -0.07570
N200        N  0.04881589  0.69621962  0.97070685    -0.60320
N201        N  0.06436013  0.55870392  0.08082154    -0.05300
N202        N  0.04569305  0.51409812  0.09205389    -0.61390
Mn203      Mn  0.05116504  0.62590896  0.12091714     1.18440
C204        C  0.06498980  0.48297804  0.05655466     0.96910
C205        C  0.00654278  0.72005997  0.98926698     0.97570
N206        N  0.15516903  0.57350137  0.15838131    -0.07590
N207        N  0.13213248  0.52887572  0.16192548    -0.63900
N208        N  0.25816976  0.66542975  0.18888639    -0.06390
N209        N  0.29386415  0.69909299  0.20125694    -0.64570
N210        N  0.22201401  0.66585913  0.22333002    -0.07090
N211        N  0.23369245  0.69846978  0.25949021    -0.64160
N212        N  0.19420476  0.56961819  0.12791790    -0.05990
N213        N  0.19691520  0.52295445  0.10988671    -0.64850
Mn214      Mn  0.14869996  0.62402740  0.22278049     1.10660
C215        C  0.15968212  0.49660881  0.13381558     0.98130
C216        C  0.27868654  0.71969742  0.24587572     0.98210
N217        N  0.15313429  0.67737067  0.07103551    -0.07100
N218        N  0.12708033  0.72081080  0.07119472    -0.62470
N219        N  0.25431219  0.58637466  0.03923901    -0.06420
N220        N  0.29304206  0.55762152  0.02326377    -0.59200
N221        N  0.21521319  0.58225018  0.00797106    -0.07730
N222        N  0.22768969  0.55186238  0.97007761    -0.62040
N223        N  0.19122522  0.67967818  0.10294369    -0.06720
N224        N  0.18944373  0.72330011  0.12709963    -0.59230
Mn225      Mn  0.13969605  0.62197846  0.01243118     1.20190
Mn226      Mn  0.25329529  0.62551639  0.11403978     1.10090
Cl227      Cl  0.15007294  0.62379044  0.11718434    -0.87200
C228        C  0.14908792  0.74902064  0.10703348     0.95140
C229        C  0.27620125  0.53638031  0.97991711     0.94930
N230        N  0.67020246  0.04908847  0.99815494    -0.07350
N231        N  0.70072205  0.03290124  0.96139832    -0.59470
N232        N  0.57510646  0.08258698  0.08752614    -0.07030
N233        N  0.52768089  0.07007197  0.09800947    -0.61600
N234        N  0.57585789  0.11358825  0.04871033    -0.06630
N235        N  0.52924647  0.12155373  0.03223056    -0.59450
N236        N  0.67370810  0.01801156  0.03732631    -0.06310
N237        N  0.70591057  0.97986818  0.02638981    -0.61950
C238        C  0.72303153  0.98928835  0.97841113     0.94820
C239        C  0.50045335  0.08847016  0.05871057     0.94600
N240        N  0.58704122  0.07743549  0.21328550    -0.07540
N241        N  0.55277591  0.06817363  0.24947088    -0.60050
N242        N  0.69420322  0.08094021  0.13297467    -0.05660
N243        N  0.74163575  0.06520174  0.12832128    -0.61300
N244        N  0.69295408  0.12258906  0.15910490    -0.07570
N245        N  0.73992034  0.13536895  0.17179420    -0.60320
N246        N  0.59199193  0.03690273  0.18487793    -0.05300
N247        N  0.56065031  0.00064126  0.20097526    -0.61390
Mn248      Mn  0.63420735  0.03168193  0.11238283     1.18440
C249        C  0.53621284  0.02003602  0.24149753     0.96910
C250        C  0.76959644  0.09630789  0.15731509     0.97570
N251        N  0.60822597  0.20847378  0.98867631    -0.07590
N252        N  0.57446119  0.22306203  0.95368142    -0.63900
N253        N  0.71235716  0.18582048  0.06169043    -0.06390
N254        N  0.76042311  0.19147685  0.04677131    -0.64570
N255        N  0.69747328  0.13981532  0.05218370    -0.07090
N256        N  0.73652187  0.11260572  0.03677148    -0.64160
N257        N  0.61806599  0.24700025  0.01801065    -0.05990
N258        N  0.58964202  0.28692658  0.00465510    -0.64850
Mn259      Mn  0.63735920  0.12819318  0.99902601     1.10660
C260        C  0.56227773  0.27217257  0.96413150     0.98130
C261        C  0.77451564  0.14470813  0.03011166     0.98210
N262        N  0.68185318  0.21861952  0.20549721    -0.07100
N263        N  0.71333020  0.22984264  0.24322955    -0.62470
N264        N  0.58430980  0.21208778  0.11428338    -0.06420
N265        N  0.54157103  0.22230093  0.08924544    -0.59200
N266        N  0.57526610  0.18071847  0.15200155    -0.07730
N267        N  0.52623858  0.16897846  0.15285574    -0.62040
N268        N  0.69427790  0.24542758  0.16508925    -0.06720
N269        N  0.73286941  0.27608492  0.17536493    -0.59230
Mn270      Mn  0.63181082  0.15018061  0.20504916     1.20190
Mn271      Mn  0.65774903  0.24174360  0.09026267     1.10090
Cl272      Cl  0.64360373  0.13730166  0.10218973    -0.87200
C273        C  0.74494181  0.26574093  0.22404708     0.95140
C274        C  0.50577032  0.19454875  0.11289877     0.94930
C275        C  0.61065841  0.62190158  0.13678548    -0.03720
C276        C  0.12205122  0.60464305  0.62539560    -0.03720
N277        N  0.34552963  0.33008991  0.41289506    -0.07350
N278        N  0.35676781  0.31948975  0.46085422    -0.59470
N279        N  0.24071287  0.30049050  0.32346664    -0.07030
N280        N  0.20517370  0.29023215  0.28937707    -0.61600
N281        N  0.27250446  0.26186778  0.32846795    -0.06630
N282        N  0.25822207  0.22476730  0.29813485    -0.59450
N283        N  0.30941776  0.36473467  0.41198617    -0.06310
N284        N  0.29599147  0.37483536  0.45929583    -0.61950
C285        C  0.31785048  0.33821945  0.48755042     0.94820
C286        C  0.21611467  0.24276906  0.27376271     0.94600
N287        N  0.31876273  0.43496716  0.29117193    -0.07540
N288        N  0.33805993  0.43581436  0.24510109    -0.60050
N289        N  0.24507454  0.44800393  0.39875164    -0.05660
N290        N  0.21090055  0.46362504  0.43220267    -0.61300
N291        N  0.28768124  0.47354152  0.40360998    -0.07570
N292        N  0.28255415  0.50773706  0.43981711    -0.60320
N293        N  0.28189685  0.40173132  0.29345734    -0.05300
N294        N  0.27444915  0.38142631  0.24900784    -0.61390
Mn295      Mn  0.24481868  0.37415074  0.36062242     1.18440
C296        C  0.30691626  0.40572631  0.21767472     0.96910
C297        C  0.23431646  0.50126937  0.45769010     0.97570
N298        N  0.38723627  0.27409118  0.30823552    -0.07590
N299        N  0.37441907  0.25295232  0.26606553    -0.63900
N300        N  0.45043846  0.28612222  0.41343560    -0.06390
N301        N  0.49008834  0.27414469  0.44201698    -0.64570
N302        N  0.41580357  0.25031387  0.41612571    -0.07090
N303        N  0.43040143  0.21437098  0.44856861    -0.64160
N304        N  0.42771071  0.30304171  0.30247441    -0.05990
N305        N  0.44342225  0.30177217  0.25517314    -0.64850
Mn306      Mn  0.34348836  0.25813774  0.37418711     1.10660
C307        C  0.40945657  0.26972160  0.23387377     0.98130
C308        C  0.47714392  0.22977869  0.46430382     0.98210
N309        N  0.40508781  0.44352509  0.42578070    -0.07100
N310        N  0.38550732  0.45207830  0.47043911    -0.62470
N311        N  0.45720735  0.41792013  0.31046799    -0.06420
N312        N  0.49589338  0.42872743  0.27962377    -0.59200
N313        N  0.42502640  0.45580293  0.31110260    -0.07730
N314        N  0.43984933  0.49287318  0.28049656    -0.62040
N315        N  0.43885924  0.40553474  0.42861056    -0.06720
N316        N  0.44256668  0.38902257  0.47596995    -0.59230
Mn317      Mn  0.35816425  0.45673456  0.35857874     1.20190
Mn318      Mn  0.44645480  0.35333031  0.36366904     1.10090
Cl319      Cl  0.34714441  0.36009919  0.36676554    -0.87200
C320        C  0.40844916  0.41784918  0.50137292     0.95140
C321        C  0.48388180  0.47554153  0.26036469     0.94930
N322        N  0.59462317  0.70071065  0.66946428    -0.07350
N323        N  0.58295561  0.70712355  0.71740189    -0.59470
N324        N  0.59180354  0.74365103  0.55090102    -0.07030
N325        N  0.57678528  0.77555619  0.51518025    -0.61600
N326        N  0.55654685  0.70954490  0.55981150    -0.06630
N327        N  0.51600512  0.71920668  0.53103222    -0.59450
N328        N  0.63598251  0.72594941  0.65785355    -0.06310
N329        N  0.65385917  0.74889536  0.69758111    -0.61950
C330        C  0.62001188  0.73858506  0.73408034     0.94820
C331        C  0.52911258  0.76070407  0.50298636     0.94600
N332        N  0.69099843  0.62598253  0.54650052    -0.07540
N333        N  0.68186350  0.59639137  0.50673296    -0.60050
N334        N  0.74179281  0.73658397  0.62064156    -0.05660
N335        N  0.75227118  0.77051515  0.65564199    -0.61300
N336        N  0.77534131  0.69930898  0.62229389    -0.07570
N337        N  0.80921144  0.70786797  0.65882362    -0.60320
N338        N  0.65752874  0.66293218  0.54698076    -0.05300
N339        N  0.62565550  0.65796226  0.50770904    -0.61390
Mn340      Mn  0.66786765  0.73773134  0.58303222     1.18440
C341        C  0.63993941  0.61542973  0.48354990     0.96910
C342        C  0.79383702  0.75209568  0.67976301     0.97570
N343        N  0.55985240  0.58440788  0.56326553    -0.07590
N344        N  0.51317907  0.56913937  0.55490673    -0.63900
N345        N  0.59947979  0.54935894  0.67419944    -0.06390
N346        N  0.58219578  0.51066336  0.70134429    -0.64570
N347        N  0.56653654  0.58696858  0.67488648    -0.07090
N348        N  0.52609162  0.57435839  0.70261597    -0.64160
N349        N  0.59226466  0.54504639  0.56272585    -0.05990
N350        N  0.56662863  0.50339797  0.55372139    -0.64850
Mn351      Mn  0.56870829  0.64651179  0.61615162     1.10660
C352        C  0.51744978  0.51879413  0.55063262     0.98130
C353        C  0.53652273  0.52653606  0.71948626     0.98210
N354        N  0.75309734  0.59119259  0.65660742    -0.07100
N355        N  0.77161392  0.61326984  0.69647361    -0.62470
N356        N  0.72029654  0.52102180  0.56173045    -0.06420
N357        N  0.72675354  0.47689084  0.53919119    -0.59200
N358        N  0.76018405  0.55010999  0.55307104    -0.07730
N359        N  0.79309425  0.52764086  0.52319118    -0.62040
N360        N  0.71719196  0.55877536  0.66943289    -0.06720
N361        N  0.71050873  0.55935984  0.71872806    -0.59230
Mn362      Mn  0.76684409  0.62525675  0.58381971     1.20190
Mn363      Mn  0.65825254  0.54256862  0.61570858     1.10090
Cl364      Cl  0.66631686  0.63842263  0.59922765    -0.87200
C365        C  0.74468025  0.59402187  0.73459051     0.95140
C366        C  0.77220367  0.48183593  0.51511420     0.94930
C367        C  0.59873530  0.11989033  0.62373268    -0.03720
C368        C  0.09648451  0.11144456  0.12923788    -0.03720
C369        C  0.21291585  0.18494541  0.19824507    -0.03080
C370        C  0.18690443  0.21456441  0.23368288     0.06600
C371        C  0.13349161  0.21784273  0.22998168    -0.03190
C372        C  0.10609228  0.18846861  0.19418591    -0.03200
C373        C  0.13100558  0.14998517  0.16298154     0.06730
C374        C  0.18682669  0.15188108  0.16471993    -0.03390
Br375      Br  0.23441480  0.11651757  0.12095133    -0.01940
Br376      Br  0.28569747  0.19599863  0.19156324    -0.02010
Br377      Br  0.03305193  0.20038608  0.19726827    -0.01970
Br378      Br  0.09663940  0.25977426  0.27813624    -0.01960
C379        C  0.54712502  0.12427798  0.53724937    -0.03080
C380        C  0.57211281  0.15116780  0.57803993     0.06600
C381        C  0.57037249  0.20628935  0.57324904    -0.03190
C382        C  0.53655925  0.23049826  0.53868491    -0.03200
C383        C  0.51017357  0.20281674  0.50207772     0.06730
C384        C  0.51772029  0.15022842  0.49986041    -0.03390
Br385      Br  0.48583883  0.11332161  0.44536203    -0.01940
Br386      Br  0.54553206  0.05109548  0.53165803    -0.02010
Br387      Br  0.52532661  0.30327148  0.54253722    -0.01970
Br388      Br  0.61851963  0.25434854  0.60177857    -0.01960
C389        C  0.48474396  0.43595246  0.58509442    -0.03080
C390        C  0.47525715  0.48600460  0.56567001     0.06600
C391        C  0.42316403  0.50352225  0.56454392    -0.03190
C392        C  0.38520713  0.46629274  0.57092036    -0.03200
C393        C  0.40067231  0.41766857  0.55708355     0.06730
C394        C  0.44379171  0.40191069  0.58406132    -0.03390
Br395      Br  0.43769943  0.34905167  0.63339339    -0.01940
Br396      Br  0.54695359  0.41580827  0.61958210    -0.02010
Br397      Br  0.31395287  0.48189491  0.57247720    -0.01970
Br398      Br  0.40173827  0.57164847  0.54606911    -0.01960
C399        C  0.19403677  0.60288443  0.55462407    -0.03080
C400        C  0.15934436  0.57520857  0.58736462     0.06600
C401        C  0.16278278  0.52071528  0.58362884    -0.03190
C402        C  0.18563264  0.49764214  0.54093635    -0.03200
C403        C  0.21228979  0.52649054  0.50418164     0.06730
C404        C  0.21969811  0.57859285  0.51379739    -0.03390
Br405      Br  0.25979701  0.61876949  0.46692070    -0.01940
Br406      Br  0.20450924  0.67557475  0.56049968    -0.02010
Br407      Br  0.18554109  0.42445793  0.53685642    -0.01970
Br408      Br  0.15108371  0.47469409  0.64056427    -0.01960
C409        C  0.57794497  0.58149380  0.22752328    -0.03080
C410        C  0.57713090  0.58392897  0.17216603     0.06600
C411        C  0.54845623  0.54331156  0.14866603    -0.03190
C412        C  0.52106574  0.50678551  0.17760711    -0.03200
C413        C  0.51879893  0.50918765  0.23027215     0.06730
C414        C  0.54670336  0.54666316  0.25480648    -0.03390
Br415      Br  0.54377028  0.54675250  0.32821346    -0.01940
Br416      Br  0.62672323  0.61378568  0.27235744    -0.02010
Br417      Br  0.48411847  0.45338642  0.14494367    -0.01970
Br418      Br  0.54073794  0.53712838  0.07580829    -0.01960
C419        C  0.43464342  0.25008206  0.09807982    -0.03080
C420        C  0.45010533  0.19888458  0.10259220     0.06600
C421        C  0.42134677  0.17015197  0.13710930    -0.03190
C422        C  0.41277619  0.19221798  0.18370271    -0.03200
C423        C  0.41513341  0.24583866  0.18616895     0.06730
C424        C  0.41990280  0.27502635  0.14198357    -0.03390
Br425      Br  0.40767906  0.34714268  0.14211829    -0.01940
Br426      Br  0.44654921  0.28887822  0.03852988    -0.02010
Br427      Br  0.40618899  0.14830348  0.24265054    -0.01970
Br428      Br  0.40463680  0.10032103  0.12699761    -0.01960
C429        C  0.19964268  0.41185339  0.13181386    -0.03080
C430        C  0.17712329  0.45083645  0.16048870     0.06600
C431        C  0.20523204  0.46688080  0.20232192    -0.03190
C432        C  0.25660291  0.47319837  0.19201042    -0.03200
C433        C  0.28069214  0.42886226  0.17459297     0.06730
C434        C  0.25070218  0.39681084  0.14319049    -0.03390
Br435      Br  0.27480871  0.33071240  0.12390738    -0.01940
Br436      Br  0.15945214  0.37893254  0.08142451    -0.02010
Br437      Br  0.29210699  0.53264135  0.21538075    -0.01970
Br438      Br  0.17471105  0.49434930  0.26228424    -0.01960
C439        C  0.23141939  0.23577653  0.45102253    -0.03080
C440        C  0.25210491  0.19496424  0.47789108     0.06600
C441        C  0.29588497  0.20300272  0.50819159    -0.03190
C442        C  0.30860244  0.25228593  0.52277458    -0.03200
C443        C  0.28382542  0.29463778  0.50024000     0.06730
C444        C  0.24186885  0.28517036  0.46683526    -0.03390
Br445      Br  0.19678935  0.33793221  0.44248100    -0.01940
Br446      Br  0.17905215  0.22108734  0.40204337    -0.02010
Br447      Br  0.36542080  0.26237815  0.56760821    -0.01970
Br448      Br  0.33890745  0.14682072  0.52973221    -0.01960
C449        C  0.78485364  0.34431457  0.25945835    -0.03080
C450        C  0.78666926  0.29180242  0.25290975     0.06600
C451        C  0.82940962  0.26523532  0.27195326    -0.03190
C452        C  0.86363992  0.28797995  0.30701870    -0.03200
C453        C  0.85878151  0.34154047  0.31963575     0.06730
C454        C  0.82307256  0.36955842  0.28764227    -0.03390
Br455      Br  0.81802929  0.44239520  0.28375461    -0.01940
Br456      Br  0.72346515  0.38038073  0.23880849    -0.02010
Br457      Br  0.91958710  0.24329814  0.32863031    -0.01970
Br458      Br  0.84523355  0.20026555  0.24253240    -0.01960
C459        C  0.92045326  0.46994984  0.34388308    -0.03080
C460        C  0.92257780  0.41561015  0.33210155     0.06600
C461        C  0.95257016  0.40526782  0.28696202    -0.03190
C462        C  0.98494839  0.44247171  0.26404687    -0.03200
C463        C  0.98581851  0.49268838  0.28053900     0.06730
C464        C  0.95486512  0.50560256  0.32153309    -0.03390
Br465      Br  0.95992189  0.57419109  0.34678292    -0.01940
Br466      Br  0.86515471  0.50491641  0.37892542    -0.02010
Br467      Br  0.03611465  0.42347048  0.21474831    -0.01970
Br468      Br  0.95641527  0.34002661  0.25489631    -0.01960
C469        C  0.00797189  0.30532147  0.44209815    -0.03080
C470        C  0.98177162  0.27986785  0.48089533     0.06600
C471        C  0.92847254  0.27738708  0.47649415    -0.03190
C472        C  0.90258569  0.29785664  0.43348992    -0.03200
C473        C  0.92699910  0.33163714  0.39692849     0.06730
C474        C  0.98241764  0.33240699  0.40211245    -0.03390
Br475      Br  0.02908252  0.37227132  0.36176740    -0.01940
Br476      Br  0.08071372  0.30138376  0.44373908    -0.02010
Br477      Br  0.83488067  0.27122676  0.42532002    -0.01970
Br478      Br  0.88956833  0.24789885  0.53178715    -0.01960
C479        C  0.85112878  0.43790412  0.48836879    -0.03080
C480        C  0.79816059  0.44295734  0.48433580     0.06600
C481        C  0.77210499  0.41615293  0.44735739    -0.03190
C482        C  0.79952384  0.38960737  0.40955914    -0.03200
C483        C  0.85539309  0.39356009  0.40572379     0.06730
C484        C  0.87988348  0.41661682  0.44905377    -0.03390
Br485      Br  0.95254756  0.43082681  0.45426000    -0.01940
Br486      Br  0.88430354  0.46135866  0.54925133    -0.02010
Br487      Br  0.75385304  0.34563619  0.37244729    -0.01970
Br488      Br  0.69763862  0.41428559  0.45087901    -0.01960
C489        C  0.35984446  0.76790979  0.27160773    -0.03080
C490        C  0.30631469  0.76244454  0.27466176     0.06600
C491        C  0.27994561  0.79855138  0.30485892    -0.03190
C492        C  0.30580649  0.83999730  0.32908501    -0.03200
C493        C  0.36111104  0.84534266  0.32785262     0.06730
C494        C  0.38604178  0.80881048  0.29523178    -0.03390
Br495      Br  0.45661802  0.81448985  0.27603347    -0.01940
Br496      Br  0.39962652  0.71499409  0.23925084    -0.02010
Br497      Br  0.26086499  0.88665115  0.36338107    -0.01970
Br498      Br  0.20722884  0.78983187  0.31680166    -0.01960
C499        C  0.42132460  0.93333210  0.27639409    -0.03080
C500        C  0.42650775  0.92559916  0.33055068     0.06600
C501        C  0.46037034  0.96183209  0.35421304    -0.03190
C502        C  0.49547723  0.99207106  0.32550687    -0.03200
C503        C  0.49574634  0.99162312  0.27230196     0.06730
C504        C  0.45664564  0.96393084  0.24842664    -0.03390
Br505      Br  0.44842087  0.97181700  0.17621503    -0.01940
Br506      Br  0.36141345  0.91308366  0.23793950    -0.02010
Br507      Br  0.54879555  0.02893094  0.35977359    -0.01970
Br508      Br  0.46458837  0.97017171  0.42650210    -0.01960
C509        C  0.31793829  0.99071791  0.44042492    -0.03080
C510        C  0.30787479  0.96668297  0.48710858     0.06600
C511        C  0.32453493  0.91655744  0.49335038    -0.03190
C512        C  0.36132833  0.89658279  0.46008514    -0.03200
C513        C  0.36413220  0.91337894  0.40754344     0.06730
C514        C  0.34051759  0.96318031  0.39959295    -0.03390
Br515      Br  0.33347715  0.99593852  0.33424406    -0.01940
Br516      Br  0.29883868  0.06125663  0.43228283    -0.02010
Br517      Br  0.41915206  0.87635969  0.50147923    -0.01970
Br518      Br  0.30580069  0.87858400  0.55354008    -0.01960
C519        C  0.48840907  0.85153799  0.39627868    -0.03080
C520        C  0.43415828  0.84371912  0.39114678     0.06600
C521        C  0.41563487  0.79862090  0.41723530    -0.03190
C522        C  0.44879762  0.76773289  0.44748829    -0.03200
C523        C  0.49715985  0.78635322  0.46250096     0.06730
C524        C  0.51485781  0.83098172  0.43797400    -0.03390
Br525      Br  0.57143844  0.87115326  0.46289548    -0.01940
Br526      Br  0.53531816  0.87625072  0.34494551    -0.02010
Br527      Br  0.42428779  0.70232478  0.47139037    -0.01970
Br528      Br  0.34391305  0.78084539  0.42272289    -0.01960
C529        C  0.30684291  0.35585533  0.81428545    -0.03080
C530        C  0.36275420  0.35627311  0.81285446     0.06600
C531        C  0.38345126  0.32151072  0.77558857    -0.03190
C532        C  0.35272668  0.28619679  0.74813778    -0.03200
C533        C  0.29931629  0.28349309  0.75445093     0.06730
C534        C  0.27720875  0.31817056  0.78856056    -0.03390
Br535      Br  0.20472311  0.31176090  0.80262869    -0.01940
Br536      Br  0.26444309  0.41025177  0.84048781    -0.02010
Br537      Br  0.38498289  0.23895532  0.70213033    -0.01970
Br538      Br  0.45511028  0.31504308  0.76240945    -0.01960
C539        C  0.36687789  0.48787932  0.87619467    -0.03080
C540        C  0.36856778  0.43245561  0.88276220     0.06600
C541        C  0.34067235  0.41522498  0.92720716    -0.03190
C542        C  0.31331022  0.44929762  0.95927336    -0.03200
C543        C  0.30716093  0.50087516  0.94687935     0.06730
C544        C  0.33188097  0.51902740  0.90358080    -0.03390
Br545      Br  0.31981573  0.58944658  0.88423597    -0.01940
Br546      Br  0.41962067  0.52992059  0.84640529    -0.02010
Br547      Br  0.28084928  0.42530107  0.02025483    -0.01970
Br548      Br  0.33372292  0.34484558  0.94586665    -0.01960
C549        C  0.47108558  0.38298966  0.92155191    -0.03080
C550        C  0.43593100  0.35872148  0.88673687     0.06600
C551        C  0.43649088  0.30359293  0.89119702    -0.03190
C552        C  0.47611413  0.27746106  0.91843337    -0.03200
C553        C  0.51789522  0.30258465  0.94030278     0.06730
C554        C  0.51266647  0.35580078  0.94511733    -0.03390
Br555      Br  0.56543935  0.39345628  0.97979333    -0.01940
Br556      Br  0.46911347  0.45449774  0.93626318    -0.02010
Br557      Br  0.46608635  0.20818740  0.93895705    -0.01970
Br558      Br  0.38114328  0.25889186  0.87067636    -0.01960
C559        C  0.41743422  0.45199804  0.76609500    -0.03080
C560        C  0.43764518  0.42212262  0.80803284     0.06600
C561        C  0.49322908  0.42323180  0.81163127    -0.03190
C562        C  0.52215811  0.46157975  0.78771075    -0.03200
C563        C  0.50127209  0.49250006  0.74955882     0.06730
C564        C  0.44900396  0.48625236  0.73768817    -0.03390
Br565      Br  0.41900242  0.52892600  0.68570317    -0.01940
Br566      Br  0.34579964  0.45306872  0.74834507    -0.02010
Br567      Br  0.59218136  0.47231207  0.80884597    -0.01970
Br568      Br  0.53812336  0.36766150  0.83185190    -0.01960
C569        C  0.23577912  0.81258628  0.09582893    -0.03080
C570        C  0.22677391  0.79710911  0.04428185     0.06600
C571        C  0.17833787  0.80823267  0.02236849    -0.03190
C572        C  0.14037515  0.82487491  0.05573696    -0.03200
C573        C  0.14724125  0.80591592  0.10529855     0.06730
C574        C  0.19256189  0.82460525  0.12521334    -0.03390
Br575      Br  0.19665493  0.84233735  0.19478226    -0.01940
Br576      Br  0.30202866  0.80774833  0.12846745    -0.02010
Br577      Br  0.12540659  0.89607954  0.04744693    -0.01970
Br578      Br  0.16592273  0.81054015  0.95081130    -0.01960
C579        C  0.13299256  0.90361626  0.76763298    -0.03080
C580        C  0.14301077  0.90380530  0.81947313     0.06600
C581        C  0.11838582  0.94354558  0.84512661    -0.03190
C582        C  0.11646377  0.99155619  0.82082449    -0.03200
C583        C  0.13761544  0.99521727  0.77196636     0.06730
C584        C  0.14379620  0.94979240  0.74372352    -0.03390
Br585      Br  0.17946582  0.94789539  0.67973766    -0.01940
Br586      Br  0.14061988  0.84220212  0.73024288    -0.02010
Br587      Br  0.08432219  0.04884006  0.85186973    -0.01970
Br588      Br  0.10046480  0.93454562  0.91451449    -0.01960
C589        C  0.16701507  0.70219109  0.73017266    -0.03080
C590        C  0.21953819  0.69365298  0.73801546     0.06600
C591        C  0.24243493  0.65615267  0.70811405    -0.03190
C592        C  0.21224357  0.62513023  0.67542374    -0.03200
C593        C  0.15926045  0.63867162  0.66169558     0.06730
C594        C  0.14165602  0.68361918  0.68671936    -0.03390
Br595      Br  0.10915394  0.73843169  0.64997254    -0.01940
Br596      Br  0.12670941  0.72999140  0.78368764    -0.02010
Br597      Br  0.24597753  0.56159070  0.66039976    -0.01970
Br598      Br  0.31542365  0.64505886  0.71552558    -0.01960
C599        C  0.17307220  0.05139667  0.01054289    -0.03080
C600        C  0.20746697  0.01431408  0.03162615     0.06600
C601        C  0.19937636  0.00346216  0.08395244    -0.03190
C602        C  0.16251598  0.03125961  0.11411478    -0.03200
C603        C  0.13086698  0.07238668  0.09371632     0.06730
C604        C  0.13214225  0.07390830  0.03902320    -0.03390
Br605      Br  0.07370376  0.09474155  0.99796900    -0.01940
Br606      Br  0.18194703  0.07634122  0.94212549    -0.02010
Br607      Br  0.16184944  0.01371478  0.18502652    -0.01970
Br608      Br  0.24262056  0.95331215  0.11722806    -0.01960
C609        C  0.57565548  0.81183073  0.84486682    -0.03080
C610        C  0.54434013  0.84405511  0.81626631     0.06600
C611        C  0.56642274  0.86211854  0.77208107    -0.03190
C612        C  0.59309912  0.82714174  0.74325083    -0.03200
C613        C  0.60688451  0.77994943  0.76660073     0.06730
C614        C  0.60242390  0.77413494  0.81939584    -0.03390
Br615      Br  0.62904837  0.71725459  0.85693223    -0.01940
Br616      Br  0.59303634  0.82979149  0.91176178    -0.02010
Br617      Br  0.59905960  0.84138827  0.67133287    -0.01970
Br618      Br  0.54197486  0.92294140  0.74240546    -0.01960
C619        C  0.51959016  0.65717736  0.09529769    -0.03080
C620        C  0.57498398  0.66014338  0.10175114     0.06600
C621        C  0.59639689  0.70524167  0.07776875    -0.03190
C622        C  0.56560881  0.74101476  0.05003106    -0.03200
C623        C  0.51589404  0.72892147  0.03387567     0.06730
C624        C  0.49348627  0.68582053  0.05666180    -0.03390
Br625      Br  0.42311466  0.67012263  0.04000321    -0.01940
Br626      Br  0.47222535  0.62809249  0.14409559    -0.02010
Br627      Br  0.59130988  0.80822149  0.03674866    -0.01970
Br628      Br  0.66898250  0.71906680  0.07469348    -0.01960
C629        C  0.52468476  0.04481839  0.73394907    -0.03080
C630        C  0.47813293  0.02960226  0.71088211     0.06600
C631        C  0.46779874  0.05067391  0.66302044    -0.03190
C632        C  0.50049269  0.08817212  0.64156439    -0.03200
C633        C  0.55403229  0.09195272  0.65662323     0.06730
C634        C  0.56393421  0.06991569  0.70581917    -0.03390
Br635      Br  0.63161081  0.06738034  0.73554372    -0.01940
Br636      Br  0.53719264  0.03066739  0.80409220    -0.02010
Br637      Br  0.46065799  0.14297744  0.61097171    -0.01970
Br638      Br  0.40431763  0.03396970  0.62986084    -0.01960
C639        C  0.48366523  0.06807389  0.93643222    -0.03080
C640        C  0.51696177  0.02577331  0.93069837     0.06600
C641        C  0.54368348  0.00840146  0.97324140    -0.03190
C642        C  0.51609766  0.00983177  0.01862277    -0.03200
C643        C  0.47951226  0.04950005  0.02568660     0.06730
C644        C  0.45680164  0.07108099  0.98232254    -0.03390
Br645      Br  0.39511619  0.11039756  0.98943554    -0.01940
Br646      Br  0.45895964  0.10438459  0.87701906    -0.02010
Br647      Br  0.53030503  0.96026358  0.07116484    -0.01970
Br648      Br  0.59526740  0.95699069  0.96306904    -0.01960
C649        C  0.00036430  0.22549485  0.84217153    -0.03080
C650        C  0.94823517  0.21993420  0.82738402     0.06600
C651        C  0.93573472  0.18724474  0.78839048    -0.03190
C652        C  0.97459153  0.17035376  0.75811895    -0.03200
C653        C  0.02501902  0.16765411  0.77845203     0.06730
C654        C  0.03682796  0.19220689  0.82318956    -0.03390
Br655      Br  0.10518785  0.18917105  0.85123886    -0.01940
Br656      Br  0.02767266  0.28725321  0.86881328    -0.02010
Br657      Br  0.95666207  0.16318115  0.68682754    -0.01970
Br658      Br  0.86651302  0.17433217  0.76822753    -0.01960
C659        C  0.79760165  0.14560708  0.89046430    -0.03080
C660        C  0.84201557  0.17412374  0.89667532     0.06600
C661        C  0.87543417  0.15145540  0.93234019    -0.03190
C662        C  0.85349316  0.13477384  0.97782855    -0.03200
C663        C  0.80010964  0.13848974  0.98177908     0.06730
C664        C  0.77100339  0.13844933  0.93573788    -0.03390
Br665      Br  0.69900292  0.15134363  0.93135328    -0.01940
Br666      Br  0.76139815  0.14442135  0.82688203    -0.02010
Br667      Br  0.89249451  0.09717487  0.02608888    -0.01970
Br668      Br  0.94538106  0.13652372  0.91701042    -0.01960
C669        C  0.63378199  0.22772542  0.72407611    -0.03080
C670        C  0.68711452  0.23497668  0.71760912     0.06600
C671        C  0.71230346  0.20077189  0.68527182    -0.03190
C672        C  0.68640079  0.15829477  0.66452050    -0.03200
C673        C  0.63089715  0.15661995  0.66136532     0.06730
C674        C  0.60580612  0.19140641  0.69534533    -0.03390
Br675      Br  0.53228257  0.19632423  0.70070569    -0.01940
Br676      Br  0.59649519  0.27237568  0.76803008    -0.02010
Br677      Br  0.73140966  0.09983945  0.65687124    -0.01970
Br678      Br  0.78351773  0.21061342  0.66880410    -0.01960
C679        C  0.06027767  0.23131150  0.03695044    -0.03080
C680        C  0.00651858  0.23784541  0.04019579     0.06600
C681        C  0.98078957  0.20155970  0.07140606    -0.03190
C682        C  0.00674379  0.15876278  0.09514670    -0.03200
C683        C  0.06222701  0.15242873  0.09446763     0.06730
C684        C  0.08723736  0.19118527  0.06360363    -0.03390
Br685      Br  0.16012553  0.19100555  0.05265319    -0.01940
Br686      Br  0.09934503  0.28001468  0.99751733    -0.02010
Br687      Br  0.96143341  0.11608747  0.13432703    -0.01970
Br688      Br  0.90874413  0.21252796  0.08738368    -0.01960
C689        C  0.73289820  0.56136866  0.86193878    -0.03080
C690        C  0.78642463  0.55237645  0.86822298     0.06600
C691        C  0.82125901  0.58564076  0.84447712    -0.03190
C692        C  0.80453318  0.61357799  0.80252335    -0.03200
C693        C  0.75356874  0.60739636  0.78689343     0.06730
C694        C  0.71675668  0.59210443  0.82171541    -0.03390
Br695      Br  0.64501667  0.60016386  0.80495169    -0.01940
Br696      Br  0.68069616  0.52027216  0.89328011    -0.02010
Br697      Br  0.85455333  0.64581845  0.75927005    -0.01970
Br698      Br  0.89387040  0.57624716  0.85291328    -0.01960
C699        C  0.66398251  0.53513157  0.12534940    -0.03080
C700        C  0.64387144  0.58210243  0.10300506     0.06600
C701        C  0.65205526  0.58463537  0.04878149    -0.03190
C702        C  0.68368785  0.54852047  0.02464129    -0.03200
C703        C  0.68766067  0.49862036  0.04343842     0.06730
C704        C  0.67746256  0.49260153  0.09506021    -0.03390
Br705      Br  0.68446043  0.42575513  0.12431946    -0.01940
Br706      Br  0.68092704  0.52720240  0.19590329    -0.02010
Br707      Br  0.74012993  0.57570383  0.98717807    -0.01970
Br708      Br  0.61702417  0.62566088  0.99876669    -0.01960
C709        C  0.01642804  0.50145324  0.66625186    -0.03080
C710        C  0.01246478  0.50656940  0.71902156     0.06600
C711        C  0.04754973  0.53974053  0.74170930    -0.03190
C712        C  0.08825022  0.56219960  0.71385507    -0.03200
C713        C  0.08681342  0.56624788  0.65913639     0.06730
C714        C  0.04794818  0.53452764  0.63663766    -0.03390
Br715      Br  0.03724640  0.53021559  0.56507848    -0.01940
Br716      Br  0.98456380  0.44388114  0.63482415    -0.02010
Br717      Br  0.14704732  0.57450321  0.75600442    -0.01970
Br718      Br  0.03916096  0.55798176  0.81153030    -0.01960
C719        C  0.01944399  0.48026450  0.98137965    -0.03080
C720        C  0.02540453  0.45504977  0.02794788     0.06600
C721        C  0.97950229  0.45026694  0.05568830    -0.03190
C722        C  0.94488845  0.49195764  0.05418163    -0.03200
C723        C  0.94398558  0.52320965  0.01011349     0.06730
C724        C  0.99066330  0.52567445  0.98312846    -0.03390
Br725      Br  0.00303502  0.57969060  0.93606607    -0.01940
Br726      Br  0.06631769  0.46621422  0.92731680    -0.02010
Br727      Br  0.89318694  0.50088069  0.10512261    -0.01970
Br728      Br  0.97247132  0.39633361  0.10397112    -0.01960
C729        C  0.76361975  0.06553228  0.24139625    -0.03080
C730        C  0.79561022  0.06829402  0.19838616     0.06600
C731        C  0.81680189  0.02203190  0.18188961    -0.03190
C732        C  0.79329742  0.97622030  0.19637796    -0.03200
C733        C  0.75325858  0.97707435  0.23167381     0.06730
C734        C  0.73166645  0.02350201  0.24551930    -0.03390
Br735      Br  0.67396611  0.02411251  0.29093510    -0.01940
Br736      Br  0.75436705  0.12133611  0.28662936    -0.02010
Br737      Br  0.82094694  0.91154549  0.17718545    -0.01970
Br738      Br  0.86246157  0.02348999  0.12612470    -0.01960
C739        C  0.96429750  0.73446185  0.22898869    -0.03080
C740        C  0.93198444  0.77259096  0.20940510     0.06600
C741        C  0.95593422  0.80985238  0.17950125    -0.03190
C742        C  0.00721203  0.82276195  0.19065429    -0.03200
C743        C  0.03570046  0.78989555  0.22271730     0.06730
C744        C  0.00955531  0.75220144  0.25086490    -0.03390
Br745      Br  0.04053300  0.71710440  0.30763852    -0.01940
Br746      Br  0.93852604  0.66788751  0.24399335    -0.02010
Br747      Br  0.04558644  0.86793283  0.14816637    -0.01970
Br748      Br  0.92079826  0.83411254  0.12041447    -0.01960
C749        C  0.65094921  0.73351791  0.23033205    -0.03080
C750        C  0.70325240  0.72427788  0.24106516     0.06600
C751        C  0.72837279  0.68809857  0.21025078    -0.03190
C752        C  0.70127716  0.65801050  0.17428510    -0.03200
C753        C  0.64573743  0.65926824  0.17086967     0.06730
C754        C  0.62227972  0.70046742  0.19874575    -0.03390
Br755      Br  0.54901702  0.70941734  0.20313593    -0.01940
Br756      Br  0.61693500  0.79263523  0.25777029    -0.02010
Br757      Br  0.74567802  0.62320675  0.12682030    -0.01970
Br758      Br  0.80250942  0.68405146  0.21219130    -0.01960
C759        C  0.05920522  0.08428819  0.22258119    -0.03080
C760        C  0.06313344  0.07537728  0.16867523     0.06600
C761        C  0.03429817  0.03073563  0.15390633    -0.03190
C762        C  0.00283007  0.00272011  0.18946267    -0.03200
C763        C  0.99571478  0.01829920  0.23968515     0.06730
C764        C  0.01893353  0.06398870  0.25194340    -0.03390
Br765      Br  0.98882461  0.10551727  0.30233342    -0.01940
Br766      Br  0.11581167  0.09959547  0.26687424    -0.02010
Br767      Br  0.95749839  0.95078814  0.16773631    -0.01970
Br768      Br  0.03200941  0.00782256  0.08518749    -0.01960
C769        C  0.71400268  0.63732175  0.40304838    -0.03080
C770        C  0.69559785  0.68679702  0.41477225     0.06600
C771        C  0.64290462  0.69644050  0.40488014    -0.03190
C772        C  0.60980231  0.65429090  0.40704189    -0.03200
C773        C  0.63122617  0.60957610  0.42784239     0.06730
C774        C  0.67766143  0.59801458  0.40377858    -0.03390
Br775      Br  0.69367078  0.53008599  0.38473867    -0.01940
Br776      Br  0.78458423  0.62286353  0.38817256    -0.02010
Br777      Br  0.53720930  0.66162047  0.40161743    -0.01970
Br778      Br  0.61670587  0.76318263  0.39096448    -0.01960
C779        C  0.99948921  0.68863809  0.57969590    -0.03080
C780        C  0.01438897  0.70752793  0.53184091     0.06600
C781        C  0.06170059  0.69073122  0.51341067    -0.03190
C782        C  0.08730727  0.64940134  0.53726454    -0.03200
C783        C  0.08178845  0.63908658  0.59119570     0.06730
C784        C  0.03420238  0.65969818  0.61100580    -0.03390
Br785      Br  0.01416733  0.65390347  0.68128023    -0.01940
Br786      Br  0.93122880  0.70326960  0.60273150    -0.02010
Br787      Br  0.10257531  0.59896906  0.48633647    -0.01970
Br788      Br  0.08721069  0.71654724  0.44952323    -0.01960
C789        C  0.70250847  0.06416916  0.52834085    -0.03080
C790        C  0.70829646  0.01310412  0.54327800     0.06600
C791        C  0.67855080  0.99508980  0.58348212    -0.03190
C792        C  0.63955180  0.02571296  0.60518605    -0.03200
C793        C  0.63705042  0.08032945  0.59599186     0.06730
C794        C  0.67129964  0.09796327  0.55637172    -0.03390
Br795      Br  0.68227498  0.16842224  0.53941707    -0.01940
Br796      Br  0.73569440  0.08794651  0.46691161    -0.02010
Br797      Br  0.58642155  0.98442733  0.63446444    -0.01970
Br798      Br  0.69211828  0.92702573  0.60917151    -0.01960
C799        C  0.11886969  0.04582916  0.39501022    -0.03080
C800        C  0.10963878  0.09411332  0.41423679     0.06600
C801        C  0.05978894  0.11105316  0.40400554    -0.03190
C802        C  0.02052750  0.07763843  0.41928119    -0.03200
C803        C  0.03374655  0.02505073  0.42615051     0.06730
C804        C  0.08177882  0.00855623  0.40544130    -0.03390
Br805      Br  0.09926986  0.93880213  0.39111116    -0.01940
Br806      Br  0.18524993  0.02979771  0.36904158    -0.02010
Br807      Br  0.95425318  0.10678415  0.43476432    -0.01970
Br808      Br  0.04760094  0.18232700  0.39423344    -0.01960
C809        C  0.83317631  0.89361524  0.94167323    -0.03080
C810        C  0.83894592  0.89770066  0.88675653     0.06600
C811        C  0.79668287  0.92726550  0.86472816    -0.03190
C812        C  0.75917567  0.95446687  0.89421991    -0.03200
C813        C  0.76195324  0.95713356  0.94749404     0.06730
C814        C  0.80103730  0.92734011  0.97015831    -0.03390
Br815      Br  0.81126230  0.93192146  0.04204505    -0.01940
Br816      Br  0.85013995  0.83353268  0.98178847    -0.02010
Br817      Br  0.70022822  0.98583975  0.86086794    -0.01970
Br818      Br  0.78175548  0.92989796  0.79403185    -0.01960
C819        C  0.96860292  0.88016755  0.79689591    -0.03080
C820        C  0.92762929  0.90328056  0.82569562     0.06600
C821        C  0.92567775  0.95766778  0.81982616    -0.03190
C822        C  0.95318980  0.98302655  0.77969912    -0.03200
C823        C  0.98226041  0.95598297  0.74290967     0.06730
C824        C  0.98912292  0.90364342  0.75292369    -0.03390
Br825      Br  0.01424036  0.85932926  0.70073587    -0.01940
Br826      Br  0.00764024  0.82146732  0.81876218    -0.02010
Br827      Br  0.94669210  0.05498099  0.77371706    -0.01970
Br828      Br  0.89036347  0.00073163  0.86738903    -0.01960
C829        C  0.81519105  0.80396981  0.81398590    -0.03080
C830        C  0.85581087  0.83978079  0.80637022     0.06600
C831        C  0.86831218  0.84819290  0.75314914    -0.03190
C832        C  0.85621983  0.81246222  0.71590533    -0.03200
C833        C  0.81758170  0.77749601  0.72439579     0.06730
C834        C  0.79547494  0.77520994  0.77297455    -0.03390
Br835      Br  0.73889370  0.73081898  0.78357973    -0.01940
Br836      Br  0.78552371  0.79121259  0.87942523    -0.02010
Br837      Br  0.88523164  0.81822151  0.64874434    -0.01970
Br838      Br  0.87406760  0.91418281  0.72032447    -0.01960
C839        C  0.93692135  0.74110204  0.92364275    -0.03080
C840        C  0.97288050  0.75804405  0.95871268     0.06600
C841        C  0.97839824  0.81117736  0.96128917    -0.03190
C842        C  0.95085427  0.84585187  0.92831015    -0.03200
C843        C  0.91662963  0.82837985  0.88905754     0.06730
C844        C  0.91590319  0.77357080  0.88540062    -0.03390
Br845      Br  0.91072622  0.73821002  0.82275695    -0.01940
Br846      Br  0.91004213  0.67429675  0.93255829    -0.02010
Br847      Br  0.95998863  0.91719306  0.94067232    -0.01970
Br848      Br  0.01823889  0.83603000  0.01586925    -0.01960
loop_ 
_geom_bond_atom_site_label_1 
_geom_bond_atom_site_label_2 
_geom_bond_distance 
_geom_bond_site_symmetry_2 
_ccdc_geom_bond_type 
C1          C810   1.681       .  S
C1          C820   1.634       .  S
C1          C830   1.625       .  S
C1          C843   1.638       .  S
N2            N3   1.325       .  A
N2            N8   1.322       .  A
N2          Mn31   2.231       .  S
N3           C10   1.356       .  A
N4            N6   1.313       .  A
N4            N5   1.297       .  A
N4          Mn20   2.118       .  S
N5           C11   1.338       .  A
N6            N7   1.319       .  A
N6          Mn31   2.132       .  S
N7           C11   1.344       .  A
N8            N9   1.324       .  A
N8          Mn20   2.230       .  S
N9           C10   1.355       .  A
C10         C790   1.503   1_565  S
C11         C733   1.421       .  S
N12          N18   1.310       .  A
N12          N13   1.333       .  A
N12         Mn42   2.257       .  S
N13          C21   1.364       .  A
N14          N15   1.315       .  A
N14          N16   1.326       .  A
N14         Mn20   2.185       .  S
N15          C22   1.341       .  A
N16          N17   1.315   1_655  A
N16         Mn42   2.179       .  S
N17          C22   1.340   1_455  A
N18          N19   1.336   1_565  A
N18         Mn20   2.264       .  S
N19          C21   1.367   1_545  A
Mn20        Cl44   2.515       .  S
C21         C763   1.545   1_565  S
C22         C803   1.485   1_665  S
N23          N24   1.331       .  A
N23          N29   1.308       .  A
N23         Mn31   2.239       .  S
N24          C32   1.366       .  A
N25          N27   1.331       .  A
N25          N26   1.315       .  A
N25         Mn43   2.166       .  S
N26          C33   1.337       .  A
N27          N28   1.318       .  A
N27         Mn31   2.192       .  S
N28          C33   1.339       .  A
N29          N30   1.325       .  A
N29         Mn43   2.228       .  S
N30          C32   1.359       .  A
Mn31        Cl44   2.537       .  S
C32         C750   1.541       .  S
C33         C770   1.481       .  S
N34          N35   1.329       .  A
N34          N40   1.317       .  A
N34         Mn42   2.251       .  S
N35          C45   1.360       .  A
N36          N37   1.316       .  A
N36          N38   1.309       .  A
N36         Mn43   2.121       .  S
N37          C46   1.347       .  A
N38          N39   1.311       .  A
N38         Mn42   2.144       .  S
N39          C46   1.353       .  A
N40          N41   1.330       .  A
N40         Mn43   2.241       .  S
N41          C45   1.360       .  A
Mn42        Cl44   2.517       .  S
Mn43        Cl44   2.526       .  S
C45         C780   1.521   1_655  S
C46         C740   1.458       .  S
N47          N48   1.304       .  A
N47          N53   1.310       .  A
N47         Mn76   2.198       .  S
N48          C55   1.353       .  A
N49          N51   1.305       .  A
N49          N50   1.325   1_556  A
N49         Mn65   2.189       .  S
N50          C56   1.352       .  A
N51          N52   1.339       .  A
N51         Mn76   2.286       .  S
N52          C56   1.370   1_556  A
N53          N54   1.313       .  A
N53         Mn65   2.121       .  S
N54          C55   1.357       .  A
C55         C723   1.492   1_556  S
C56         C680   1.566   1_655  S
N57          N63   1.320       .  A
N57          N58   1.320       .  A
N57         Mn87   2.216       .  S
N58          C66   1.347       .  A
N59          N60   1.326   1_556  A
N59          N61   1.307       .  A
N59         Mn65   2.178       .  S
N60          C67   1.347       .  A
N61          N62   1.337       .  A
N61         Mn87   2.251       .  S
N62          C67   1.366   1_556  A
N63          N64   1.323       .  A
N63         Mn65   2.147       .  S
N64          C66   1.352       .  A
Mn65        Cl89   2.620       .  S
C66         C660   1.498       .  S
C67         C703   1.522       .  S
N68          N69   1.314       .  A
N68          N74   1.311       .  A
N68         Mn76   2.127       .  S
N69          C77   1.325       .  A
N70          N72   1.322       .  A
N70          N71   1.333       .  A
N70         Mn88   2.251       .  S
N71          C78   1.361       .  A
N72          N73   1.327       .  A
N72         Mn76   2.241       .  S
N73          C78   1.353       .  A
N74          N75   1.310       .  A
N74         Mn88   2.113       .  S
N75          C77   1.339       .  A
Mn76        Cl89   2.759       .  S
C77         C650   1.440       .  S
C78         C710   1.533   1_655  S
N79          N80   1.322       .  A
N79          N85   1.307       .  A
N79         Mn87   2.157       .  S
N80          C90   1.334       .  A
N81          N82   1.336       .  A
N81          N83   1.319       .  A
N81         Mn88   2.269       .  S
N82          C91   1.363       .  A
N83          N84   1.326       .  A
N83         Mn87   2.218       .  S
N84          C91   1.350       .  A
N85          N86   1.318       .  A
N85         Mn88   2.137       .  S
N86          C90   1.345       .  A
Mn87        Cl89   2.766       .  S
Mn88        Cl89   2.748       .  S
C90         C690   1.459       .  S
C91         C670   1.537       .  S
N92          N93   1.330       .  A
N92          N98   1.317       .  A
N92        Mn121   2.258       .  S
N93         C100   1.358       .  A
N94          N96   1.318       .  A
N94          N95   1.278   1_556  A
N94        Mn110   2.043       .  S
N95         C101   1.310       .  A
N96          N97   1.328       .  A
N96        Mn121   2.246       .  S
N97         C101   1.371   1_556  A
N98          N99   1.334   1_556  A
N98        Mn110   2.236       .  S
N99         C100   1.362   1_554  A
C100        C623   1.532   1_556  S
C101        C570   1.418       .  S
N102        N108   1.309       .  A
N102        N103   1.330       .  A
N102       Mn132   2.221       .  S
N103        C111   1.361       .  A
N104        N105   1.305       .  A
N104        N106   1.307       .  A
N104       Mn110   2.121       .  S
N105        C112   1.358       .  A
N106        N107   1.303       .  A
N106       Mn132   2.111       .  S
N107        C112   1.340       .  A
N108        N109   1.340   1_556  A
N108       Mn110   2.308       .  S
N109        C111   1.375   1_554  A
Mn110      Cl134   2.530       .  S
C111        C600   1.578   1_566  S
C112        C640   1.468   1_565  S
N113        N114   1.339       .  A
N113        N119   1.314       .  A
N113       Mn121   2.283       .  S
N114        C122   1.371       .  A
N115        N117   1.331       .  A
N115        N116   1.318       .  A
N115       Mn133   2.184       .  S
N116        C123   1.344       .  A
N117        N118   1.319       .  A
N117       Mn121   2.206       .  S
N118        C123   1.342       .  A
N119        N120   1.326       .  A
N119       Mn133   2.213       .  S
N120        C122   1.350       .  A
Mn121      Cl134   2.557       .  S
C122        C590   1.526       .  S
C123        C610   1.477       .  S
N124        N125   1.329   1_565  A
N124        N130   1.307       .  A
N124       Mn132   2.194       .  S
N125        C135   1.350   1_545  A
N126        N127   1.313       .  A
N126        N128   1.319       .  A
N126       Mn133   2.183       .  S
N127        C136   1.350       .  A
N128        N129   1.319       .  A
N128       Mn132   2.153       .  S
N129        C136   1.351       .  A
N130        N131   1.338       .  A
N130       Mn133   2.284       .  S
N131        C135   1.372       .  A
Mn132      Cl134   2.554       .  S
Mn133      Cl134   2.526       .  S
C135        C630   1.535   1_565  S
C136        C580   1.481       .  S
C137        C530   1.656       .  S
C137        C540   1.645       .  S
C137        C550   1.634       .  S
C137        C560   1.628       .  S
C138        C493   1.646       .  S
C138        C500   1.633       .  S
C138        C513   1.642       .  S
C138        C520   1.608       .  S
C139        C453   1.617       .  S
C139        C460   1.649       .  S
C139        C473   1.640       .  S
C139        C483   1.611       .  S
N140        N141   1.327       .  A
N140        N146   1.304       .  A
N140       Mn169   2.138       .  S
N141        C148   1.355       .  A
N142        N144   1.318       .  A
N142        N143   1.323   1_545  A
N142       Mn158   2.186       .  S
N143        C149   1.342       .  A
N144        N145   1.335       .  A
N144       Mn169   2.259       .  S
N145        C149   1.361   1_545  A
N146        N147   1.309       .  A
N146       Mn158   2.160       .  S
N147        C148   1.320       .  A
C148        C583   1.448   1_545  S
C149        C510   1.506       .  S
N150        N156   1.301       .  A
N150        N151   1.312       .  A
N150       Mn180   2.139       .  S
N151        C159   1.350       .  A
N152        N153   1.333       .  A
N152        N154   1.310   1_565  A
N152       Mn158   2.235   1_565  S
N153        C160   1.359       .  A
N154        N155   1.334   1_455  A
N154       Mn180   2.225       .  S
N155        C160   1.357   1_645  A
N156        N157   1.321       .  A
N156       Mn158   2.143       .  S
N157        C159   1.356       .  A
Mn158      Cl182   2.787       .  S
C159        C800   1.489       .  S
C160        C823   1.547   1_455  S
N161        N162   1.314       .  A
N161        N167   1.309       .  A
N161       Mn169   2.123       .  S
N162        C170   1.332       .  A
N163        N165   1.323       .  A
N163        N164   1.332       .  A
N163       Mn181   2.249       .  S
N164        C171   1.356       .  A
N165        N166   1.334       .  A
N165       Mn169   2.272       .  S
N166        C171   1.362       .  A
N167        N168   1.313       .  A
N167       Mn181   2.148       .  S
N168        C170   1.349       .  A
Mn169      Cl182   2.790       .  S
C170        C440   1.465       .  S
C171        C533   1.542       .  S
N172        N173   1.305       .  A
N172        N178   1.305       .  A
N172       Mn180   2.118       .  S
N173        C183   1.325       .  A
N174        N175   1.333       .  A
N174        N176   1.315       .  A
N174       Mn181   2.259       .  S
N175        C184   1.364       .  A
N176        N177   1.324   1_455  A
N176       Mn180   2.184       .  S
N177        C184   1.347   1_655  A
N178        N179   1.316       .  A
N178       Mn181   2.122       .  S
N179        C183   1.348       .  A
Mn180      Cl182   2.787       .  S
Mn181      Cl182   2.784       .  S
C183        C653   1.432       .  S
C184        C470   1.524   1_455  S
N185        N186   1.314       .  A
N185        N191   1.313       .  A
N185       Mn214   2.166       .  S
N186        C193   1.348       .  A
N187        N189   1.312       .  A
N187        N188   1.329       .  A
N187       Mn203   2.249       .  S
N188        C194   1.357       .  A
N189        N190   1.330       .  A
N189       Mn214   2.207       .  S
N190        C194   1.356       .  A
N191        N192   1.300       .  A
N191       Mn203   2.108       .  S
N192        C193   1.353       .  A
C193        C743   1.435       .  S
C194        C463   1.513   1_455  S
N195        N201   1.311       .  A
N195        N196   1.318       .  A
N195       Mn225   2.225       .  S
N196        C204   1.365       .  A
N197        N198   1.338   1_455  A
N197        N199   1.314       .  A
N197       Mn203   2.282       .  S
N198        C205   1.365   1_654  A
N199        N200   1.334   1_554  A
N199       Mn225   2.247       .  S
N200        C205   1.362       .  A
N201        N202   1.306       .  A
N201       Mn203   2.101       .  S
N202        C204   1.350       .  A
Mn203      Cl227   2.587       .  S
C204        C720   1.485       .  S
C205        C840   1.547   1_455  S
N206        N207   1.326       .  A
N206        N212   1.306       .  A
N206       Mn214   2.181       .  S
N207        C215   1.342       .  A
N208        N210   1.315       .  A
N208        N209   1.334       .  A
N208       Mn226   2.258       .  S
N209        C216   1.364       .  A
N210        N211   1.330       .  A
N210       Mn214   2.217       .  S
N211        C216   1.353       .  A
N212        N213   1.325       .  A
N212       Mn226   2.170       .  S
N213        C215   1.353       .  A
Mn214      Cl227   2.796       .  S
C215        C430   1.459       .  S
C216        C490   1.549       .  S
N217        N218   1.327       .  A
N217        N223   1.306       .  A
N217       Mn225   2.172       .  S
N218        C228   1.343       .  A
N219        N220   1.332       .  A
N219        N221   1.320       .  A
N219       Mn226   2.243       .  S
N220        C229   1.357   1_554  A
N221        N222   1.330   1_554  A
N221       Mn225   2.231       .  S
N222        C229   1.353       .  A
N223        N224   1.322       .  A
N223       Mn226   2.169       .  S
N224        C228   1.353       .  A
Mn225      Cl227   2.787       .  S
Mn226      Cl227   2.700       .  S
C228        C573   1.498       .  S
C229        C543   1.518       .  S
N230        N231   1.332       .  A
N230        N236   1.315   1_556  A
N230       Mn259   2.247       .  S
N231        C238   1.355   1_545  A
N232        N234   1.304       .  A
N232        N233   1.314       .  A
N232       Mn248   2.135       .  S
N233        C239   1.343       .  A
N234        N235   1.308       .  A
N234       Mn259   2.113   1_554  S
N235        C239   1.346       .  A
N236        N237   1.340   1_545  A
N236       Mn248   2.272       .  S
N237        C238   1.368   1_554  A
C238        C813   1.558       .  S
C239        C643   1.464       .  S
N240        N246   1.319       .  A
N240        N241   1.334       .  A
N240       Mn270   2.260       .  S
N241        C249   1.361       .  A
N242        N243   1.311       .  A
N242        N244   1.304       .  A
N242       Mn248   2.117       .  S
N243        C250   1.347       .  A
N244        N245   1.319       .  A
N244       Mn270   2.138       .  S
N245        C250   1.343       .  A
N246        N247   1.329       .  A
N246       Mn248   2.221       .  S
N247        C249   1.353       .  A
Mn248      Cl272   2.803       .  S
C249        C503   1.531   1_545  S
C250        C730   1.469       .  S
N251        N252   1.329       .  A
N251        N257   1.311   1_556  A
N251       Mn259   2.254       .  S
N252        C260   1.361       .  A
N253        N255   1.302       .  A
N253        N254   1.326       .  A
N253       Mn271   2.186       .  S
N254        C261   1.361       .  A
N255        N256   1.311       .  A
N255       Mn259   2.133   1_554  S
N256        C261   1.319       .  A
N257        N258   1.326       .  A
N257       Mn271   2.176       .  S
N258        C260   1.351   1_554  A
Mn259      Cl272   2.749   1_556  S
C260        C553   1.535       .  S
C261        C663   1.455   1_554  S
N262        N263   1.330       .  A
N262        N268   1.317       .  A
N262       Mn270   2.234       .  S
N263        C273   1.355       .  A
N264        N265   1.322       .  A
N264        N266   1.311       .  A
N264       Mn271   2.171       .  S
N265        C274   1.343       .  A
N266        N267   1.320       .  A
N266       Mn270   2.179       .  S
N267        C274   1.354       .  A
N268        N269   1.326       .  A
N268       Mn271   2.200       .  S
N269        C273   1.350       .  A
Mn270      Cl272   2.765       .  S
Mn271      Cl272   2.791       .  S
C273        C450   1.505       .  S
C274        C420   1.483       .  S
C275        C410   1.624       .  S
C275        C620   1.644       .  S
C275        C700   1.632       .  S
C275        C753   1.629       .  S
C276        C400   1.605       .  S
C276        C593   1.644       .  S
C276        C713   1.632       .  S
C276        C783   1.646       .  S
N277        N278   1.328       .  A
N277        N283   1.308       .  A
N277       Mn306   2.165       .  S
N278        C285   1.335       .  A
N279        N281   1.313       .  A
N279        N280   1.325       .  A
N279       Mn295   2.188       .  S
N280        C286   1.350       .  A
N281        N282   1.327       .  A
N281       Mn306   2.214       .  S
N282        C286   1.354       .  A
N283        N284   1.331       .  A
N283       Mn295   2.176       .  S
N284        C285   1.337       .  A
C285        C443   1.492       .  S
C286        C370   1.511       .  S
N287        N293   1.307       .  A
N287        N288   1.321       .  A
N287       Mn317   2.144       .  S
N288        C296   1.356       .  A
N289        N290   1.326       .  A
N289        N291   1.312       .  A
N289       Mn295   2.202       .  S
N290        C297   1.355       .  A
N291        N292   1.329       .  A
N291       Mn317   2.241       .  S
N292        C297   1.359       .  A
N293        N294   1.313       .  A
N293       Mn295   2.148       .  S
N294        C296   1.347       .  A
Mn295      Cl319   2.701       .  S
C296        C433   1.454       .  S
C297        C403   1.518       .  S
N298        N299   1.298       .  A
N298        N304   1.316       .  A
N298       Mn306   2.128       .  S
N299        C307   1.326       .  A
N300        N302   1.313       .  A
N300        N301   1.316       .  A
N300       Mn318   2.194       .  S
N301        C308   1.348       .  A
N302        N303   1.323       .  A
N302       Mn306   2.197       .  S
N303        C308   1.356       .  A
N304        N305   1.319       .  A
N304       Mn318   2.162       .  S
N305        C307   1.356       .  A
Mn306      Cl319   2.691       .  S
C307        C423   1.425       .  S
C308        C383   1.489       .  S
N309        N310   1.310       .  A
N309        N315   1.330       .  A
N309       Mn317   2.181       .  S
N310        C320   1.347       .  A
N311        N312   1.331       .  A
N311        N313   1.300       .  A
N311       Mn318   2.214       .  S
N312        C321   1.362       .  A
N313        N314   1.321       .  A
N313       Mn317   2.155       .  S
N314        C321   1.348       .  A
N315        N316   1.325       .  A
N315       Mn318   2.222       .  S
N316        C320   1.352       .  A
Mn317      Cl319   2.569       .  S
Mn318      Cl319   2.602       .  S
C320        C393   1.489       .  S
C321        C413   1.500       .  S
N322        N323   1.318       .  A
N322        N328   1.308       .  A
N322       Mn351   2.132       .  S
N323        C330   1.356       .  A
N324        N326   1.311       .  A
N324        N325   1.314       .  A
N324       Mn340   2.164       .  S
N325        C331   1.348       .  A
N326        N327   1.325       .  A
N326       Mn351   2.238       .  S
N327        C331   1.360       .  A
N328        N329   1.306       .  A
N328       Mn340   2.170       .  S
N329        C330   1.338       .  A
C330        C613   1.436       .  S
C331        C523   1.507       .  S
N332        N338   1.303       .  A
N332        N333   1.339       .  A
N332       Mn362   2.213       .  S
N333        C341   1.345       .  A
N334        N335   1.324       .  A
N334        N336   1.311       .  A
N334       Mn340   2.171       .  S
N335        C342   1.343       .  A
N336        N337   1.332       .  A
N336       Mn362   2.223       .  S
N337        C342   1.354       .  A
N338        N339   1.339       .  A
N338       Mn340   2.217       .  S
N339        C341   1.347       .  A
Mn340      Cl364   2.644       .  S
C341        C773   1.502       .  S
C342        C833   1.500       .  S
N343        N344   1.306       .  A
N343        N349   1.334       .  A
N343       Mn351   2.179       .  S
N344        C352   1.335       .  A
N345        N347   1.308       .  A
N345        N346   1.322       .  A
N345       Mn363   2.191       .  S
N346        C353   1.353       .  A
N347        N348   1.330       .  A
N347       Mn351   2.195       .  S
N348        C353   1.356       .  A
N349        N350   1.313       .  A
N349       Mn363   2.221       .  S
N350        C352   1.347       .  A
Mn351      Cl364   2.599       .  S
C352        C390   1.458       .  S
C353        C563   1.511       .  S
N354        N355   1.305       .  A
N354        N360   1.315       .  A
N354       Mn362   2.147       .  S
N355        C365   1.329       .  A
N356        N357   1.322       .  A
N356        N358   1.317       .  A
N356       Mn363   2.238       .  S
N357        C366   1.356       .  A
N358        N359   1.312       .  A
N358       Mn362   2.156       .  S
N359        C366   1.347       .  A
N360        N361   1.317       .  A
N360       Mn363   2.143       .  S
N361        C365   1.351       .  A
Mn362      Cl364   2.680       .  S
Mn363      Cl364   2.566       .  S
C365        C693   1.451       .  S
C366        C480   1.478       .  S
C367        C380   1.609       .  S
C367        C633   1.632       .  S
C367        C673   1.633       .  S
C367        C793   1.623       .  S
C368        C373   1.635       .  S
C368        C603   1.662       .  S
C368        C683   1.664       .  S
C368        C760   1.656       .  S
C369        C370   1.401       .  A
C369        C374   1.427       .  A
C369       Br376   1.935       .  S
C370        C371   1.401       .  A
C371        C372   1.425       .  A
C371       Br378   1.948       .  S
C372        C373   1.465       .  A
C372       Br377   1.934       .  S
C373        C374   1.461       .  A
C374       Br375   1.942       .  S
C379        C380   1.455       .  A
C379        C384   1.417       .  A
C379       Br386   1.935       .  S
C380        C381   1.455       .  A
C381        C382   1.413       .  A
C381       Br388   1.949       .  S
C382        C383   1.403       .  A
C382       Br387   1.940       .  S
C383        C384   1.399       .  A
C384       Br385   1.939       .  S
C389        C390   1.428       .  A
C389        C394   1.401       .  A
C389       Br396   1.930       .  S
C390        C391   1.434       .  A
C391        C392   1.409       .  A
C391       Br398   1.932       .  S
C392        C393   1.393       .  A
C392       Br397   1.905       .  S
C393        C394   1.391       .  A
C394       Br395   1.904       .  S
C399        C400   1.450       .  A
C399        C404   1.428       .  A
C399       Br406   1.943       .  S
C400        C401   1.441       .  A
C401        C402   1.420       .  A
C401       Br408   1.948       .  S
C402        C403   1.415       .  A
C402       Br407   1.931       .  S
C403        C404   1.413       .  A
C404       Br405   1.935       .  S
C409        C410   1.466       .  A
C409        C414   1.423       .  A
C409       Br416   1.947       .  S
C410        C411   1.455       .  A
C411        C412   1.421       .  A
C411       Br418   1.948       .  S
C412        C413   1.398       .  A
C412       Br417   1.924       .  S
C413        C414   1.397       .  A
C414       Br415   1.945       .  S
C419        C420   1.408       .  A
C419        C424   1.395       .  A
C419       Br426   1.895       .  S
C420        C421   1.402       .  A
C421        C422   1.388       .  A
C421       Br428   1.914       .  S
C422        C423   1.416       .  A
C422       Br427   1.939       .  S
C423        C424   1.398       .  A
C424       Br425   1.923       .  S
C429        C430   1.410       .  A
C429        C434   1.420       .  A
C429       Br436   1.916       .  S
C430        C431   1.399       .  A
C431        C432   1.381       .  A
C431       Br438   1.924       .  S
C432        C433   1.405       .  A
C432       Br437   1.933       .  S
C433        C434   1.429       .  A
C434       Br435   1.921       .  S
C439        C440   1.387       .  A
C439        C444   1.399       .  A
C439       Br446   1.928       .  S
C440        C441   1.415       .  A
C441        C442   1.400       .  A
C441       Br448   1.931       .  S
C442        C443   1.410       .  A
C442       Br447   1.921       .  S
C443        C444   1.432       .  A
C444       Br445   1.919       .  S
C449        C450   1.396       .  A
C449        C454   1.419       .  A
C449       Br456   1.933       .  S
C450        C451   1.403       .  A
C451        C452   1.428       .  A
C451       Br458   1.930       .  S
C452        C453   1.458       .  A
C452       Br457   1.950       .  S
C453        C454   1.450       .  A
C454       Br455   1.922       .  S
C459        C460   1.468       .  A
C459        C464   1.429       .  A
C459       Br466   1.950       .  S
C460        C461   1.458       .  A
C461        C462   1.429       .  A
C461       Br468   1.927       .  S
C462        C463   1.398       .  A
C462       Br467   1.938   1_655  S
C463        C464   1.399       .  A
C464       Br465   1.938       .  S
C469        C470   1.402   1_455  A
C469        C474   1.430   1_455  A
C469       Br476   1.904       .  S
C470        C471   1.400       .  A
C471        C472   1.421       .  A
C471       Br478   1.941       .  S
C472        C473   1.457       .  A
C472       Br477   1.921       .  S
C473        C474   1.455       .  A
C474       Br475   1.930   1_655  S
C479        C480   1.393       .  A
C479        C484   1.405       .  A
C479       Br486   1.938       .  S
C480        C481   1.393       .  A
C481        C482   1.420       .  A
C481       Br488   1.950       .  S
C482        C483   1.468       .  A
C482       Br487   1.942       .  S
C483        C484   1.454       .  A
C484       Br485   1.943       .  S
C489        C490   1.410       .  A
C489        C494   1.430       .  A
C489       Br496   1.941       .  S
C490        C491   1.424       .  A
C491        C492   1.444       .  A
C491       Br498   1.942       .  S
C492        C493   1.454       .  A
C492       Br497   1.929       .  S
C493        C494   1.452       .  A
C494       Br495   1.921       .  S
C499        C500   1.451       .  A
C499        C504   1.431       .  A
C499       Br506   1.947       .  S
C500        C501   1.453       .  A
C501        C502   1.432       .  A
C501       Br508   1.932       .  S
C502        C503   1.409       .  A
C502       Br507   1.934   1_565  S
C503        C504   1.412       .  A
C504       Br505   1.932       .  S
C509        C510   1.407       .  A
C509        C514   1.434       .  A
C509       Br516   1.929   1_565  S
C510        C511   1.394       .  A
C511        C512   1.409       .  A
C511       Br518   1.936       .  S
C512        C513   1.456       .  A
C512       Br517   1.932       .  S
C513        C514   1.458       .  A
C514       Br515   1.931       .  S
C519        C520   1.441       .  A
C519        C524   1.402       .  A
C519       Br526   1.942       .  S
C520        C521   1.453       .  A
C521        C522   1.423       .  A
C521       Br528   1.941       .  S
C522        C523   1.417       .  A
C522       Br527   1.941       .  S
C523        C524   1.416       .  A
C524       Br525   1.943       .  S
C529        C530   1.462       .  A
C529        C534   1.440       .  A
C529       Br536   1.940       .  S
C530        C531   1.456       .  A
C531        C532   1.436       .  A
C531       Br538   1.912       .  S
C532        C533   1.408       .  A
C532       Br537   1.941       .  S
C533        C534   1.413       .  A
C534       Br535   1.940       .  S
C539        C540   1.467       .  A
C539        C544   1.429       .  A
C539       Br546   1.937       .  S
C540        C541   1.455       .  A
C541        C542   1.431       .  A
C541       Br548   1.921       .  S
C542        C543   1.401       .  A
C542       Br547   1.927   1_556  S
C543        C544   1.398       .  A
C544       Br545   1.940       .  S
C549        C550   1.456       .  A
C549        C554   1.434       .  A
C549       Br556   1.927       .  S
C550        C551   1.454       .  A
C551        C552   1.428       .  A
C551       Br558   1.952       .  S
C552        C553   1.408       .  A
C552       Br557   1.916       .  S
C553        C554   1.414       .  A
C554       Br555   1.940       .  S
C559        C560   1.449       .  A
C559        C564   1.434       .  A
C559       Br566   1.929       .  S
C560        C561   1.456       .  A
C561        C562   1.410       .  A
C561       Br568   1.938       .  S
C562        C563   1.397       .  A
C562       Br567   1.936       .  S
C563        C564   1.412       .  A
C564       Br565   1.927       .  S
C569        C570   1.448       .  A
C569        C574   1.409       .  A
C569       Br576   1.936       .  S
C570        C571   1.418       .  A
C571        C572   1.401       .  A
C571       Br578   1.921   1_554  S
C572        C573   1.409       .  A
C572       Br577   1.922       .  S
C573        C574   1.391       .  A
C574       Br575   1.908       .  S
C579        C580   1.397       .  A
C579        C584   1.394       .  A
C579       Br586   1.915       .  S
C580        C581   1.407       .  A
C581        C582   1.412       .  A
C581       Br588   1.909       .  S
C582        C583   1.410       .  A
C582       Br587   1.916   1_565  S
C583        C584   1.426       .  A
C584       Br585   1.936       .  S
C589        C590   1.404       .  A
C589        C594   1.420       .  A
C589       Br596   1.916       .  S
C590        C591   1.404       .  A
C591        C592   1.436       .  A
C591       Br598   1.937       .  S
C592        C593   1.471       .  A
C592       Br597   1.931       .  S
C593        C594   1.436       .  A
C594       Br595   1.922       .  S
C599        C600   1.430       .  A
C599        C604   1.438       .  A
C599       Br606   1.934   1_554  S
C600        C601   1.427       .  A
C601        C602   1.452       .  A
C601       Br608   1.934   1_545  S
C602        C603   1.455       .  A
C602       Br607   1.928       .  S
C603        C604   1.448       .  A
C604       Br605   1.944   1_554  S
C609        C610   1.391       .  A
C609        C614   1.392       .  A
C609       Br616   1.894       .  S
C610        C611   1.386       .  A
C611        C612   1.388       .  A
C611       Br618   1.882       .  S
C612        C613   1.424       .  A
C612       Br617   1.943       .  S
C613        C614   1.409       .  A
C614       Br615   1.913       .  S
C619        C620   1.460       .  A
C619        C624   1.432       .  A
C619       Br626   1.945       .  S
C620        C621   1.455       .  A
C621        C622   1.429       .  A
C621       Br628   1.936       .  S
C622        C623   1.407       .  A
C622       Br627   1.926       .  S
C623        C624   1.410       .  A
C624       Br625   1.939       .  S
C629        C630   1.422       .  A
C629        C634   1.430       .  A
C629       Br636   1.916       .  S
C630        C631   1.402       .  A
C631        C632   1.424       .  A
C631       Br638   1.931       .  S
C632        C633   1.459       .  A
C632       Br637   1.941       .  S
C633        C634   1.441       .  A
C634       Br635   1.935       .  S
C639        C640   1.418       .  A
C639        C644   1.407       .  A
C639       Br646   1.937       .  S
C640        C641   1.394       .  A
C641        C642   1.403   1_556  A
C641       Br648   1.925   1_545  S
C642        C643   1.425       .  A
C642       Br647   1.929   1_545  S
C643        C644   1.403   1_554  A
C644       Br645   1.920       .  S
C649        C650   1.426   1_455  A
C649        C654   1.389       .  A
C649       Br656   1.922       .  S
C650        C651   1.392       .  A
C651        C652   1.370       .  A
C651       Br658   1.919       .  S
C652        C653   1.423   1_655  A
C652       Br657   1.955       .  S
C653        C654   1.391       .  A
C654       Br655   1.934       .  S
C659        C660   1.397       .  A
C659        C664   1.398       .  A
C659       Br666   1.930       .  S
C660        C661   1.409       .  A
C661        C662   1.402       .  A
C661       Br668   1.912       .  S
C662        C663   1.402       .  A
C662       Br667   1.897   1_556  S
C663        C664   1.435       .  A
C664       Br665   1.913       .  S
C669        C670   1.419       .  A
C669        C674   1.433       .  A
C669       Br676   1.925       .  S
C670        C671   1.410       .  A
C671        C672   1.427       .  A
C671       Br678   1.931       .  S
C672        C673   1.454       .  A
C672       Br677   1.943       .  S
C673        C674   1.446       .  A
C674       Br675   1.931       .  S
C679        C680   1.417       .  A
C679        C684   1.442       .  A
C679       Br686   1.941   1_554  S
C680        C681   1.428   1_455  A
C681        C682   1.447   1_655  A
C681       Br688   1.951       .  S
C682        C683   1.459       .  A
C682       Br687   1.933   1_455  S
C683        C684   1.458       .  A
C684       Br685   1.927       .  S
C689        C690   1.426       .  A
C689        C694   1.392       .  A
C689       Br696   1.930       .  S
C690        C691   1.411       .  A
C691        C692   1.392       .  A
C691       Br698   1.924       .  S
C692        C693   1.405       .  A
C692       Br697   1.934       .  S
C693        C694   1.392       .  A
C694       Br695   1.935       .  S
C699        C700   1.458       .  A
C699        C704   1.428       .  A
C699       Br706   1.927       .  S
C700        C701   1.452       .  A
C701        C702   1.415       .  A
C701       Br708   1.924   1_554  S
C702        C703   1.402       .  A
C702       Br707   1.917   1_554  S
C703        C704   1.400       .  A
C704       Br705   1.921       .  S
C709        C710   1.409       .  A
C709        C714   1.431       .  A
C709       Br716   1.931   1_455  S
C710        C711   1.409       .  A
C711        C712   1.424       .  A
C711       Br718   1.928       .  S
C712        C713   1.451       .  A
C712       Br717   1.929       .  S
C713        C714   1.451       .  A
C714       Br715   1.919       .  S
C719        C720   1.401   1_556  A
C719        C724   1.409   1_455  A
C719       Br726   1.923       .  S
C720        C721   1.413   1_455  A
C721        C722   1.417       .  A
C721       Br728   1.909       .  S
C722        C723   1.419       .  A
C722       Br727   1.926       .  S
C723        C724   1.416   1_554  A
C724       Br725   1.909   1_655  S
C729        C730   1.415       .  A
C729        C734   1.394       .  A
C729       Br736   1.921       .  S
C730        C731   1.409       .  A
C731        C732   1.407   1_545  A
C731       Br738   1.900       .  S
C732        C733   1.405       .  A
C732       Br737   1.919       .  S
C733        C734   1.396   1_565  A
C734       Br735   1.931       .  S
C739        C740   1.401       .  A
C739        C744   1.402   1_655  A
C739       Br746   1.919       .  S
C740        C741   1.404       .  A
C741        C742   1.416   1_655  A
C741       Br748   1.913       .  S
C742        C743   1.412       .  A
C742       Br747   1.917       .  S
C743        C744   1.414       .  A
C744       Br745   1.928       .  S
C749        C750   1.414       .  A
C749        C754   1.429       .  A
C749       Br756   1.936       .  S
C750        C751   1.420       .  A
C751        C752   1.435       .  A
C751       Br758   1.940       .  S
C752        C753   1.454       .  A
C752       Br757   1.945       .  S
C753        C754   1.452       .  A
C754       Br755   1.931       .  S
C759        C760   1.453       .  A
C759        C764   1.414       .  A
C759       Br766   1.934       .  S
C760        C761   1.458       .  A
C761        C762   1.450       .  A
C761       Br768   1.924       .  S
C762        C763   1.408   1_455  A
C762       Br767   1.909   1_445  S
C763        C764   1.393   1_655  A
C764       Br765   1.903   1_455  S
C769        C770   1.423       .  A
C769        C774   1.410       .  A
C769       Br776   1.923       .  S
C770        C771   1.422       .  A
C771        C772   1.413       .  A
C771       Br778   1.912       .  S
C772        C773   1.405       .  A
C772       Br777   1.910       .  S
C773        C774   1.405       .  A
C774       Br775   1.907       .  S
C779        C780   1.412   1_655  A
C779        C784   1.436   1_655  A
C779       Br786   1.924       .  S
C780        C781   1.401       .  A
C781        C782   1.414       .  A
C781       Br788   1.936       .  S
C782        C783   1.458       .  A
C782       Br787   1.944       .  S
C783        C784   1.455       .  A
C784       Br785   1.938       .  S
C789        C790   1.403       .  A
C789        C794   1.420       .  A
C789       Br796   1.943       .  S
C790        C791   1.399   1_545  A
C791        C792   1.421   1_565  A
C791       Br798   1.938       .  S
C792        C793   1.456       .  A
C792       Br797   1.928   1_545  S
C793        C794   1.454       .  A
C794       Br795   1.927       .  S
C799        C800   1.394       .  A
C799        C804   1.410       .  A
C799       Br806   1.914       .  S
C800        C801   1.399       .  A
C801        C802   1.413       .  A
C801       Br808   1.915       .  S
C802        C803   1.434       .  A
C802       Br807   1.936   1_455  S
C803        C804   1.437       .  A
C804       Br805   1.931   1_545  S
C809        C810   1.464       .  A
C809        C814   1.439       .  A
C809       Br816   1.942       .  S
C810        C811   1.463       .  A
C811        C812   1.446       .  A
C811       Br818   1.911       .  S
C812        C813   1.415       .  A
C812       Br817   1.947       .  S
C813        C814   1.411       .  A
C814       Br815   1.926   1_556  S
C819        C820   1.450       .  A
C819        C824   1.419       .  A
C819       Br826   1.928   1_655  S
C820        C821   1.439       .  A
C821        C822   1.443       .  A
C821       Br828   1.936   1_565  S
C822        C823   1.430       .  A
C822       Br827   1.905   1_565  S
C823        C824   1.410       .  A
C824       Br825   1.932   1_655  S
C829        C830   1.438       .  A
C829        C834   1.429       .  A
C829       Br836   1.926       .  S
C830        C831   1.461       .  A
C831        C832   1.408       .  A
C831       Br838   1.940       .  S
C832        C833   1.388       .  A
C832       Br837   1.939       .  S
C833        C834   1.412       .  A
C834       Br835   1.911       .  S
C839        C840   1.399       .  A
C839        C844   1.423       .  A
C839       Br846   1.911       .  S
C840        C841   1.410       .  A
C841        C842   1.443       .  A
C841       Br848   1.904   1_656  S
C842        C843   1.451       .  A
C842       Br847   1.927       .  S
C843        C844   1.447       .  A
C844       Br845   1.917       .  S
