geometry optimzed in LAMMPS
_audit_creation_date              2020-11-30 
_audit_creation_method            'lammps2cif' 
_symmetry_space_group_name_H-M    'P1' 
_symmetry_Int_Tables_number       1 
_symmetry_cell_setting            triclinic 
loop_ 
_symmetry_equiv_pos_as_xyz 
  x,y,z 
_cell_length_a                    48.19487865 
_cell_length_b                    48.35352120590261 
_cell_length_c                    48.367778245086015 
_cell_angle_alpha                 90.0958813616293 
_cell_angle_beta                  90.04939435218168 
_cell_angle_gamma                 90.0462829143085 
loop_ 
_atom_site_label 
_atom_site_type_symbol 
_atom_site_fract_x 
_atom_site_fract_y 
_atom_site_fract_z 
_atom_site_charge 
O1          O  0.95994024  0.99031440  0.95544934    -0.78400
C2          C  0.03335446  0.94188144  0.95410960     0.82700
O3          O  0.96754095  0.95557688  0.04907586    -0.79500
O4          O  0.06571750  0.97714374  0.03106180    -0.81000
O5          O  0.02869733  0.05572151  0.98044912    -0.80800
O6          O  0.96345272  0.03537342  0.96439768    -0.79400
Zn7        Zn  0.98385620  0.96959047  0.98179718     1.55700
O8          O  0.06303911  0.02483066  0.98127325    -0.80800
Cd9        Cd  0.99423213  0.03410154  0.99489472     1.59700
Cd10       Cd  0.99672699  0.98711477  0.04382870     1.59600
O11         O  0.98116111  0.05464832  0.03044583    -0.80800
O12         O  0.00499006  0.99483903  0.00384326    -1.91300
Cd13       Cd  0.04524788  0.98844197  0.99508132     1.59900
O14         O  0.98294644  0.02258852  0.06348817    -0.80700
O15         O  0.05151964  0.95767022  0.96503744    -0.79400
C16         C  0.95627065  0.94056506  0.03051722     0.83100
C17         C  0.95345281  0.01531780  0.95038690     0.82800
O18         O  0.00772109  0.94452798  0.95946848    -0.78400
C19         C  0.05412502  0.04925938  0.97678173     0.83600
O20         O  0.96088128  0.94449299  0.00495100    -0.78500
C21         C  0.97846665  0.04737585  0.05568208     0.83700
C22         C  0.05820274  0.97328514  0.05608078     0.84100
O23         O  0.03298219  0.97578850  0.06367654    -0.80900
O24         O  0.00201615  0.30160474  0.29560692    -0.78400
C25         C  0.95014053  0.30538748  0.22079801     0.82700
O26         O  0.95923201  0.21210352  0.28776432    -0.79500
O27         O  0.97994765  0.22167916  0.19069237    -0.81000
O28         O  0.05971920  0.27368939  0.21869817    -0.80800
O29         O  0.04604449  0.29249734  0.28502183    -0.79400
Zn30       Zn  0.97874657  0.27843309  0.27009531     1.55700
O31         O  0.02595599  0.27183814  0.18714448    -0.80800
Cd32       Cd  0.04084749  0.26171060  0.25530969     1.59700
Cd33       Cd  0.99233043  0.21397743  0.25969020     1.59600
O34         O  0.06113719  0.22673845  0.26947055    -0.80800
O35         O  0.00068637  0.25327025  0.24857537    -1.91300
Cd36       Cd  0.99108000  0.25890226  0.20860602     1.59900
O37         O  0.02773458  0.19546672  0.27603119    -0.80700
O38         O  0.95949893  0.28810110  0.20318049    -0.79400
C39         C  0.94513220  0.23209140  0.29778019     0.83100
C40         C  0.02788740  0.30555980  0.29900743     0.82800
O41         O  0.95722437  0.30449427  0.24611878    -0.78400
C42         C  0.05121757  0.27615884  0.19381331     0.83600
O43         O  0.95110521  0.25715129  0.29225342    -0.78500
C44         C  0.05322129  0.20272891  0.27703396     0.83700
C45         C  0.97819600  0.19685793  0.19941198     0.84100
O46         O  0.98204747  0.19080332  0.22481899    -0.80900
O47         O  0.75139153  0.30158684  0.45818550    -0.78400
C48         C  0.80516887  0.30107446  0.52807172     0.82700
O49         O  0.79005699  0.20764447  0.45963055    -0.79500
O50         O  0.77216679  0.22284665  0.56142185    -0.81000
O51         O  0.69155995  0.27115808  0.52733337    -0.80800
O52         O  0.70790232  0.28626670  0.46044769    -0.79400
Zn53       Zn  0.77430641  0.27464902  0.47994413     1.55700
O54         O  0.72316812  0.27153150  0.56107695    -0.80800
Cd55       Cd  0.71215162  0.25731385  0.49234957     1.59700
Cd56       Cd  0.76163075  0.21045864  0.49268269     1.59600
O57         O  0.69243405  0.22079975  0.48139508    -0.80800
O58         O  0.75202670  0.25020602  0.50174306    -1.91300
Cd59       Cd  0.75954581  0.25888700  0.54170840     1.59900
O60         O  0.72570887  0.18881904  0.48180814    -0.80700
O61         O  0.79012606  0.28958693  0.54649348    -0.79400
C62         C  0.80013815  0.22776844  0.44579906     0.83100
C63         C  0.72608302  0.30284351  0.45081483     0.82800
O64         O  0.80175317  0.29613695  0.50247354    -0.78400
C65         C  0.69829371  0.27489737  0.55260323     0.83600
O66         O  0.79505171  0.25270739  0.45240957    -0.78500
C67         C  0.70031999  0.19575639  0.47872841     0.83700
C68         C  0.77768265  0.19819640  0.55359876     0.84100
O69         O  0.77626146  0.19093105  0.52820146    -0.80900
O70         O  0.80153466  0.99788998  0.79937293    -0.78400
C71         C  0.72803844  0.94714097  0.80426547     0.82700
O72         O  0.79052636  0.96101456  0.70858139    -0.79500
O73         O  0.69129414  0.98098864  0.72785237    -0.81000
O74         O  0.72864508  0.06027271  0.77801176    -0.80800
O75         O  0.79592909  0.04281284  0.79156694    -0.79400
Zn76       Zn  0.77605121  0.97649179  0.77563348     1.55700
O77         O  0.69476029  0.02876387  0.77781765    -0.80800
Cd78       Cd  0.76317281  0.03977023  0.76277055     1.59700
Cd79       Cd  0.76016515  0.99147560  0.71405437     1.59600
O80         O  0.77361002  0.05994421  0.72617410    -0.80800
O81         O  0.75305004  0.00021714  0.75402391    -1.91300
Cd82       Cd  0.71299522  0.99275674  0.76340164     1.59900
O83         O  0.77192570  0.02723366  0.69357140    -0.80700
O84         O  0.70889813  0.96173942  0.79338358    -0.79400
C85         C  0.80475045  0.94869574  0.72705347     0.83100
C86         C  0.80842125  0.02289384  0.80357676     0.82800
O87         O  0.75349628  0.95126515  0.79876216    -0.78400
C88         C  0.70338672  0.05338620  0.78200927     0.83600
O89         O  0.80096361  0.95317857  0.75262064    -0.78500
C90         C  0.77565714  0.05233176  0.70093430     0.83700
C91         C  0.69868203  0.97633838  0.70289909     0.84100
O92         O  0.72390381  0.97855017  0.69524557    -0.80900
O93         O  0.29553777  0.95504093  0.25570757    -0.78400
C94         C  0.30979570  0.03216678  0.30213320     0.82700
O95         O  0.20944793  0.96912280  0.29403401    -0.79500
O96         O  0.22699223  0.06773556  0.27763240    -0.81000
O97         O  0.27621249  0.03503883  0.19513604    -0.80800
O98         O  0.29285150  0.96768472  0.21161554    -0.79400
Zn99       Zn  0.27623877  0.98416140  0.27823079     1.55700
O100        O  0.27434347  0.06808028  0.22730515    -0.80800
Cd101      Cd  0.26340716  0.99934954  0.21555512     1.59700
Cd102      Cd  0.21418902  0.99917222  0.26333397     1.59600
O103        O  0.22773471  0.98598491  0.19575246    -0.80800
O104        O  0.25411370  0.00764577  0.25519877    -1.91300
Cd105      Cd  0.26241536  0.04768371  0.26340276     1.59900
O106        O  0.19445875  0.98567270  0.22780393    -0.80700
O107        O  0.29446709  0.05126287  0.29228702    -0.79400
C108        C  0.22779047  0.95903912  0.31011302     0.83100
C109        C  0.30151927  0.95124792  0.23033615     0.82800
O110        O  0.30516194  0.00668654  0.29731972    -0.78400
C111        C  0.27860040  0.06035081  0.20239010     0.83600
O112        O  0.25345802  0.96450533  0.30709944    -0.78500
C113        C  0.20261458  0.98184793  0.20300767     0.83700
C114        C  0.20185673  0.05995006  0.28072355     0.84100
O115        O  0.19435390  0.03499947  0.27625182    -0.80900
O116        O  0.04429619  0.55283180  0.49377278    -0.78400
C117        C  0.97793948  0.55460197  0.54840115     0.82700
O118        O  0.04110903  0.45954500  0.53468632    -0.79500
O119        O  0.94170547  0.47390192  0.52067206    -0.81000
O120        O  0.97096820  0.51884010  0.43687838    -0.80800
O121        O  0.03528299  0.54375767  0.44970410    -0.79400
Zn122      Zn  0.02479577  0.52554102  0.51741396     1.55700
O123        O  0.93921929  0.52127401  0.47042470    -0.80800
Cd124      Cd  0.00828397  0.51013376  0.45602335     1.59700
Cd125      Cd  0.01005389  0.46261908  0.50475428     1.59600
O126        O  0.02381328  0.47517750  0.43669320    -0.80800
O127        O  0.00081148  0.50216724  0.49618342    -1.91300
Cd128      Cd  0.96087400  0.51004142  0.50628394     1.59900
O129        O  0.02396809  0.44263410  0.46932604    -0.80700
O130        O  0.95814808  0.54164487  0.53640862    -0.79400
C131        C  0.05679562  0.47846484  0.54440752     0.83100
C132        C  0.04691457  0.55849767  0.46828366     0.82800
O133        O  0.00319182  0.54904752  0.54325184    -0.78400
C134        C  0.94603582  0.52264569  0.44489412     0.83600
O135        O  0.05306483  0.50384640  0.53852444    -0.78500
C136        C  0.02801865  0.45030004  0.44440872     0.83700
C137        C  0.94978685  0.44880998  0.52287780     0.84100
O138        O  0.97478198  0.44175369  0.51773189    -0.80900
O139        O  0.44942106  0.28818577  0.75359709    -0.78400
C140        C  0.45458722  0.22025247  0.80847137     0.82700
O141        O  0.54520635  0.28862257  0.78810145    -0.79500
O142        O  0.53120490  0.18785401  0.77483503    -0.81000
O143        O  0.47915389  0.21790922  0.69433896    -0.80800
O144        O  0.46157688  0.28414188  0.70942637    -0.79400
Zn145      Zn  0.47825940  0.26823603  0.77539411     1.55700
O146        O  0.48104886  0.18538309  0.72699953    -0.80800
Cd147      Cd  0.49223392  0.25402579  0.71314779     1.59700
Cd148      Cd  0.54153818  0.25615596  0.75978074     1.59600
O149        O  0.52683431  0.26721275  0.69173357    -0.80800
O150        O  0.50170151  0.24610721  0.75261321    -1.91300
Cd151      Cd  0.49453524  0.20622869  0.76186724     1.59900
O152        O  0.56064824  0.26832726  0.72317497    -0.80700
O153        O  0.46516570  0.20147682  0.79327026    -0.79400
C154        C  0.52571650  0.30300468  0.79860383     0.83100
C155        C  0.44608085  0.29419705  0.72824747     0.82800
O156        O  0.45910713  0.24576668  0.80401457    -0.78400
C157        C  0.47636126  0.19286266  0.70214778     0.83600
O158        O  0.50033706  0.29710034  0.79451122    -0.78500
C159        C  0.55208346  0.27146324  0.69838633     0.83700
C160        C  0.55591486  0.19664512  0.77861260     0.84100
O161        O  0.56258860  0.22183832  0.77435622    -0.80900
O162        O  0.79661399  0.75006568  0.95450631    -0.78400
C163        C  0.72713069  0.80355567  0.95168024     0.82700
O164        O  0.79005728  0.79153569  0.04773407    -0.79500
O165        O  0.69004836  0.77466717  0.03191416    -0.81000
O166        O  0.72278421  0.69336454  0.98420427    -0.80800
O167        O  0.78861634  0.70631904  0.96590662    -0.79400
Zn168      Zn  0.77481634  0.77368267  0.98081534     1.55700
O169        O  0.69057233  0.72651684  0.98253606    -0.80800
Cd170      Cd  0.75904008  0.71248226  0.99698226     1.59700
Cd171      Cd  0.75855079  0.76216338  0.04396520     1.59600
O172        O  0.77240441  0.69323046  0.03294842    -0.80800
O173        O  0.75076818  0.75261985  0.00431764    -1.91300
Cd174      Cd  0.71079078  0.76195717  0.99618747     1.59900
O175        O  0.77096790  0.72696059  0.06452050    -0.80700
O176        O  0.70761397  0.79220275  0.96540575    -0.79400
C177        C  0.80589939  0.80103009  0.02889257     0.83100
C178        C  0.80054209  0.72434716  0.95084896     0.82800
O179        O  0.75254179  0.79838909  0.95662126    -0.78400
C180        C  0.69799044  0.70135112  0.97944361     0.83600
O181        O  0.80206994  0.79536476  0.00343729    -0.78500
C182        C  0.77513973  0.70180947  0.05776936     0.83700
C183        C  0.69762954  0.77796952  0.05702351     0.84100
O184        O  0.72285056  0.77480373  0.06441272    -0.80900
O185        O  0.30006185  0.24889046  0.95161418    -0.78400
C186        C  0.22380777  0.29863497  0.93950225     0.82700
O187        O  0.28737129  0.29319364  0.03625239    -0.79500
O188        O  0.18851738  0.27014329  0.02111743    -0.81000
O189        O  0.22277343  0.18963721  0.97498125    -0.80800
O190        O  0.29040619  0.20476254  0.96052578    -0.79400
Zn191      Zn  0.27186109  0.27241853  0.97031831     1.55700
O192        O  0.19030533  0.22237582  0.97216763    -0.80800
Cd193      Cd  0.25799824  0.21024280  0.98883775     1.59700
Cd194      Cd  0.25779839  0.26137865  0.03407819     1.59600
O195        O  0.26933410  0.19222944  0.02633403    -0.80800
O196        O  0.24946001  0.25054229  0.99475741    -1.91300
Cd197      Cd  0.20960549  0.25819801  0.98585358     1.59900
O198        O  0.27117263  0.22718722  0.05643779    -0.80700
O199        O  0.20556830  0.28889050  0.95589269    -0.79400
C200        C  0.29780846  0.30722748  0.01648425     0.83100
C201        C  0.30519725  0.22323563  0.94882242     0.82800
O202        O  0.24932919  0.29224614  0.94153888    -0.78400
C203        C  0.19791921  0.19720633  0.96982627     0.83600
O204        O  0.29255561  0.30150557  0.99132957    -0.78500
C205        C  0.27360267  0.20150440  0.05073270     0.83700
C206        C  0.19600773  0.27536681  0.04587659     0.84100
O207        O  0.22138919  0.27402463  0.05338250    -0.80900
O208        O  0.69385476  0.54062373  0.24715835    -0.78400
C209        C  0.76727676  0.55111182  0.19716347     0.82700
O210        O  0.70757235  0.45073942  0.20739674    -0.79500
O211        O  0.80548954  0.47143767  0.22375557    -0.81000
O212        O  0.77320542  0.51800778  0.30614404    -0.80800
O213        O  0.70709687  0.53609020  0.29098514    -0.79400
Zn214      Zn  0.72003945  0.51838594  0.22394461     1.55700
O215        O  0.80541200  0.51783493  0.27317245    -0.80800
Cd216      Cd  0.73729991  0.50522912  0.28621222     1.59700
Cd217      Cd  0.73807948  0.45570136  0.23814031     1.59600
O218        O  0.72564437  0.46925737  0.30635552    -0.80800
O219        O  0.74467862  0.49619064  0.24630448    -1.91300
Cd220      Cd  0.78426059  0.50578389  0.23768240     1.59900
O221        O  0.72625205  0.43556542  0.27464685    -0.80700
O222        O  0.78664000  0.53715080  0.20843297    -0.79400
C223        C  0.69365767  0.46894823  0.19422610     0.83100
C224        C  0.69146404  0.54681097  0.27260408     0.82800
O225        O  0.74175093  0.54596850  0.20163473    -0.78400
C226        C  0.79827115  0.52117353  0.29835063     0.83600
O227        O  0.69684170  0.49472446  0.19862316    -0.78500
C228        C  0.72300982  0.44383818  0.29958393     0.83700
C229        C  0.79940162  0.44597278  0.22053376     0.84100
O230        O  0.77483557  0.43686642  0.22461366    -0.80900
O231        O  0.44645884  0.95525277  0.50387161    -0.78400
C232        C  0.45181471  0.02346298  0.44882717     0.82700
O233        O  0.54157116  0.95644496  0.46466845    -0.79500
O234        O  0.52807531  0.05698960  0.48439457    -0.81000
O235        O  0.47805837  0.02285194  0.56340856    -0.80800
O236        O  0.46164290  0.95715084  0.54729429    -0.79400
Zn237      Zn  0.47522470  0.97490885  0.48136209     1.55700
O238        O  0.47777576  0.05591829  0.53128418    -0.80800
Cd239      Cd  0.49180536  0.98782675  0.54306383     1.59700
Cd240      Cd  0.53931280  0.98818308  0.49415227     1.59600
O241        O  0.52792954  0.97605222  0.56276735    -0.80800
O242        O  0.49961071  0.99695524  0.50348117    -1.91300
Cd243      Cd  0.49171152  0.03690713  0.49574143     1.59900
O244        O  0.56033343  0.97605173  0.52986602    -0.80700
O245        O  0.46256719  0.04205118  0.46418198    -0.79400
C246        C  0.52192035  0.94137922  0.45527315     0.83100
C247        C  0.44457146  0.94836715  0.52915636     0.82800
O248        O  0.45593322  0.99785723  0.45313879    -0.78400
C249        C  0.47408311  0.04787383  0.55611110     0.83600
O250        O  0.49665869  0.94611252  0.46120855    -0.78500
C251        C  0.55303861  0.97293084  0.55506693     0.83700
C252        C  0.55277261  0.04905626  0.47909042     0.84100
O253        O  0.55974245  0.02360070  0.48043554    -0.80900
O254        O  0.00110164  0.70658436  0.70038503    -0.78400
C255        C  0.05694045  0.77268605  0.70779662     0.82700
O256        O  0.03559578  0.70379909  0.79626313    -0.79500
O257        O  0.02302911  0.80508429  0.78373384    -0.81000
O258        O  0.94126857  0.77644199  0.73100638    -0.80800
O259        O  0.95636857  0.71047059  0.71048847    -0.79400
Zn260      Zn  0.02241282  0.72531600  0.73014952     1.55700
O261        O  0.97459567  0.80840582  0.73464470    -0.80800
Cd262      Cd  0.95990222  0.73953128  0.74302913     1.59700
Cd263      Cd  0.00689912  0.73662790  0.79330537     1.59600
O264        O  0.93828509  0.72640401  0.77787239    -0.80800
O265        O  0.99958689  0.74721190  0.75360376    -1.91300
Cd266      Cd  0.00972038  0.78704028  0.74703542     1.59900
O267        O  0.96959293  0.72495383  0.81192968    -0.80700
O268        O  0.04167493  0.79167884  0.71796705    -0.79400
C269        C  0.04588253  0.68979784  0.77633541     0.83100
C270        C  0.97584761  0.70103806  0.69525329     0.82800
O271        O  0.05188806  0.74730575  0.71219075    -0.78400
C272        C  0.94950407  0.80152669  0.72957324     0.83600
O273        O  0.04118777  0.69616421  0.75132473    -0.78500
C274        C  0.94466210  0.72240485  0.80321676     0.83700
C275        C  0.02596744  0.79635068  0.80845285     0.84100
O276        O  0.02119960  0.77117309  0.81497868    -0.80900
O277        O  0.44586971  0.79529675  0.25182744    -0.78400
C278        C  0.44065034  0.72188516  0.30030616     0.82700
O279        O  0.53695117  0.78634749  0.29398286    -0.79500
O280        O  0.52248817  0.68903977  0.27047663    -0.81000
O281        O  0.47751157  0.72411576  0.18989917    -0.80800
O282        O  0.45597734  0.78890149  0.20742564    -0.79400
Zn283      Zn  0.47041226  0.77105251  0.27454494     1.55700
O284        O  0.47515115  0.69090490  0.22181257    -0.80800
Cd285      Cd  0.48794389  0.75963232  0.21185882     1.59700
Cd286      Cd  0.53477707  0.75752291  0.26176505     1.59600
O287        O  0.52426762  0.77416698  0.19379623    -0.80800
O288        O  0.49492947  0.74955936  0.25173529    -1.91300
Cd289      Cd  0.48665727  0.70947243  0.25866987     1.59900
O290        O  0.55611422  0.77190641  0.22723835    -0.80700
O291        O  0.45560198  0.70356792  0.28854221    -0.79400
C292        C  0.51741041  0.79750466  0.30788267     0.83100
C293        C  0.44142986  0.80020836  0.22636816     0.82800
O294        O  0.44430655  0.74750175  0.29598222    -0.78400
C295        C  0.47356750  0.69891749  0.19672158     0.83600
O296        O  0.49195543  0.79316921  0.30224114    -0.78500
C297        C  0.54926430  0.77680798  0.20219995     0.83700
C298        C  0.54761968  0.69611746  0.27489888     0.84100
O299        O  0.55540179  0.72133141  0.27348188    -0.80900
O300        O  0.20304152  0.74900309  0.55183260    -0.78400
C301        C  0.18745539  0.70823106  0.47240224     0.82700
O302        O  0.28861549  0.71144566  0.53649011    -0.79500
O303        O  0.27011255  0.73506558  0.43899176    -0.81000
O304        O  0.22334765  0.81539378  0.47821825    -0.80800
O305        O  0.20775440  0.79402487  0.54392669    -0.79400
Zn306      Zn  0.22190771  0.72877963  0.52129549     1.55700
O307        O  0.22344089  0.78639650  0.44228993    -0.80800
Cd308      Cd  0.23630479  0.79208499  0.51161399     1.59700
Cd309      Cd  0.28469541  0.74412021  0.50801037     1.59600
O310        O  0.27235988  0.81096968  0.52462191    -0.80800
O311        O  0.24459062  0.75322074  0.50002388    -1.91300
Cd312      Cd  0.23490962  0.74844286  0.45975347     1.59900
O313        O  0.30579716  0.77920062  0.52242293    -0.80700
O314        O  0.20236783  0.71999213  0.45404253    -0.79400
C315        C  0.26969892  0.69506044  0.54507151     0.83100
C316        C  0.19817265  0.77405475  0.55820934     0.82800
O317        O  0.19262823  0.71099245  0.49806106    -0.78400
C318        C  0.22028184  0.81060882  0.45244945     0.83600
O319        O  0.24429675  0.69902579  0.53909979    -0.78500
C320        C  0.29769646  0.80390457  0.52728450     0.83700
C321        C  0.29516554  0.73004169  0.44606067     0.84100
O322        O  0.30340567  0.73216899  0.47110681    -0.80900
O323        O  0.20608787  0.49500875  0.69420868    -0.78400
C324        C  0.19485701  0.54653204  0.76675583     0.82700
O325        O  0.29352884  0.53527348  0.70250265    -0.79500
O326        O  0.27669538  0.52013694  0.80316275    -0.81000
O327        O  0.22616947  0.43860743  0.77130686    -0.80800
O328        O  0.21400790  0.45082495  0.70354354    -0.79400
Zn329      Zn  0.22687721  0.51864827  0.72023871     1.55700
O330        O  0.22742959  0.47081759  0.80432247    -0.80800
Cd331      Cd  0.24155411  0.45728730  0.73639655     1.59700
Cd332      Cd  0.28993398  0.50611028  0.73483185     1.59600
O333        O  0.27820795  0.43710943  0.72840440    -0.80800
O334        O  0.24998641  0.49723491  0.74385619    -1.91300
Cd335      Cd  0.24085909  0.50630601  0.78349667     1.59900
O336        O  0.31102144  0.46957339  0.72496857    -0.80700
O337        O  0.20944833  0.53622214  0.78621872    -0.79400
C338        C  0.27390198  0.54756560  0.68969002     0.83100
C339        C  0.20251367  0.46953366  0.68901318     0.82800
O340        O  0.19968083  0.54085377  0.74153609    -0.78400
C341        C  0.22288001  0.44599738  0.79638474     0.83600
O342        O  0.24864315  0.54324875  0.69579148    -0.78500
C343        C  0.30339621  0.44424042  0.72466982     0.83700
C344        C  0.30161108  0.52468647  0.79531914     0.84100
O345        O  0.30917432  0.52128494  0.77022599    -0.80900
O346        O  0.49724691  0.45813585  0.94457009    -0.78400
C347        C  0.44358230  0.45430759  0.01647459     0.82700
O348        O  0.46127682  0.54952538  0.95423362    -0.79500
O349        O  0.47944038  0.53045935  0.05297548    -0.81000
O350        O  0.55863467  0.47962503  0.02075606    -0.80800
O351        O  0.54208942  0.46403682  0.95393678    -0.79400
Zn352      Zn  0.47496233  0.48223684  0.96931332     1.55700
O353        O  0.52545205  0.47960717  0.05282576    -0.80800
Cd354      Cd  0.53883610  0.49394765  0.98516142     1.59700
Cd355      Cd  0.49127097  0.54362833  0.98511665     1.59600
O356        O  0.55985576  0.52965626  0.97328743    -0.80800
O357        O  0.49883734  0.50344745  0.99299096    -1.91300
Cd358      Cd  0.49021831  0.49425440  0.03258699     1.59900
O359        O  0.52753410  0.56268870  0.97303840    -0.80700
O360        O  0.45781154  0.46529398  0.03589060    -0.79400
C361        C  0.44767704  0.53131490  0.94076683     0.83100
C362        C  0.52265905  0.45273443  0.93996751     0.82800
O363        O  0.44871653  0.45931075  0.99119157    -0.78400
C364        C  0.55062758  0.47562951  0.04560341     0.83600
O365        O  0.45126082  0.50563902  0.94483018    -0.78500
C366        C  0.55259978  0.55485583  0.96999925     0.83700
C367        C  0.47661274  0.55580210  0.04610499     0.84100
O368        O  0.47951703  0.56383020  0.02114774    -0.80900
C369        C  0.32276899  0.53273725  0.81624322    -0.01200
C370        C  0.35017173  0.53849323  0.80832982    -0.09200
C371        C  0.37095724  0.54261930  0.82812767    -0.18000
C372        C  0.36508515  0.54073530  0.85672110     0.04400
C373        C  0.33706741  0.53592154  0.86462974     0.18600
C374        C  0.31630214  0.53234836  0.84451492    -0.19500
C375        C  0.33004518  0.53353217  0.89258593    -0.20700
C376        C  0.35042214  0.53447787  0.91289044    -0.19300
C377        C  0.37830678  0.53818493  0.90579329     0.19900
C378        C  0.38605181  0.54221864  0.87770115     0.02100
C379        C  0.41456986  0.54641010  0.87188433    -0.14000
C380        C  0.43457614  0.54481932  0.89285117    -0.11700
C381        C  0.42676660  0.53936122  0.92012881     0.01600
C382        C  0.39863004  0.53667469  0.92657328    -0.23900
H383        H  0.35581114  0.53911373  0.78666585     0.09600
H384        H  0.39156089  0.54640593  0.82037802     0.13200
H385        H  0.29522879  0.52795475  0.85100424     0.11900
H386        H  0.30871607  0.53003891  0.89875992     0.13100
H387        H  0.34438461  0.53166407  0.93428369     0.12100
H388        H  0.42213262  0.55013891  0.85126720     0.09200
H389        H  0.45633873  0.54658666  0.88753270     0.12500
H390        H  0.39266817  0.53210200  0.94770205     0.14300
C391        C  0.27636572  0.67098280  0.56285783    -0.01200
C392        C  0.29847390  0.67131973  0.58171926    -0.09200
C393        C  0.30150146  0.65004561  0.60129000    -0.18000
C394        C  0.28238988  0.62775688  0.60245810     0.04400
C395        C  0.26102017  0.62697363  0.58214881     0.18600
C396        C  0.25834780  0.64826263  0.56275138    -0.19500
C397        C  0.24163274  0.60547112  0.58181730    -0.20700
C398        C  0.24213610  0.58520702  0.60199456    -0.19300
C399        C  0.26206516  0.58591374  0.62299304     0.19900
C400        C  0.28293886  0.60671866  0.62337589     0.02100
C401        C  0.30269344  0.60584683  0.64515934    -0.14000
C402        C  0.30087038  0.58589233  0.66624983    -0.11700
C403        C  0.27928334  0.56648168  0.66623490     0.01600
C404        C  0.26051302  0.56627943  0.64413380    -0.23900
H405        H  0.31271532  0.68865294  0.58215716     0.09600
H406        H  0.31848945  0.65192496  0.61569119     0.13200
H407        H  0.24142126  0.64758876  0.54795720     0.11900
H408        H  0.22548236  0.60469775  0.56621729     0.13100
H409        H  0.22637250  0.56919922  0.60153886     0.12100
H410        H  0.31934311  0.62067398  0.64671849     0.09200
H411        H  0.31564115  0.58635788  0.68312989     0.12500
H412        H  0.24399532  0.55100482  0.64375831     0.14300
C413        C  0.46853963  0.67793901  0.17481681    -0.01200
C414        C  0.46593222  0.64995373  0.18185697    -0.09200
C415        C  0.46466272  0.62953708  0.16150283    -0.18000
C416        C  0.46610433  0.63637453  0.13312782     0.04400
C417        C  0.46759711  0.66484509  0.12596718     0.18600
C418        C  0.46869620  0.68525528  0.14672392    -0.19500
C419        C  0.46874603  0.67272685  0.09814485    -0.20700
C420        C  0.46921787  0.65289574  0.07725989    -0.19300
C421        C  0.46864142  0.62466337  0.08365967     0.19900
C422        C  0.46675837  0.61599555  0.11167933     0.02100
C423        C  0.46634361  0.58726929  0.11704632    -0.14000
C424        C  0.46856353  0.56803819  0.09566263    -0.11700
C425        C  0.47115453  0.57656035  0.06811215     0.01600
C426        C  0.47065996  0.60500892  0.06223868    -0.23900
H427        H  0.46559978  0.64360395  0.20331874     0.09600
H428        H  0.46303324  0.60856288  0.16876504     0.13200
H429        H  0.47060858  0.70682302  0.14092850     0.11900
H430        H  0.46972160  0.69439069  0.09250119     0.13100
H431        H  0.47053018  0.65969384  0.05595778     0.12100
H432        H  0.46485830  0.57888289  0.13759652     0.09200
H433        H  0.46885329  0.54627624  0.10091755     0.12500
H434        H  0.47270998  0.61195713  0.04103422     0.14300
C435        C  0.31557155  0.72266213  0.42429157    -0.01200
C436        C  0.34191618  0.71253267  0.43126008    -0.09200
C437        C  0.36206958  0.70809889  0.41092439    -0.18000
C438        C  0.35666972  0.71420737  0.38282644     0.04400
C439        C  0.32975288  0.72406123  0.37585794     0.18600
C440        C  0.30947979  0.72764946  0.39638691    -0.19500
C441        C  0.32349868  0.73139819  0.34858797    -0.20700
C442        C  0.34378550  0.73043180  0.32823946    -0.19300
C443        C  0.37063637  0.72141533  0.33449598     0.19900
C444        C  0.37727494  0.71215897  0.36160434     0.02100
C445        C  0.40449807  0.70213684  0.36634588    -0.14000
C446        C  0.42470670  0.70317120  0.34556312    -0.11700
C447        C  0.41838603  0.71419685  0.31962305     0.01600
C448        C  0.39121104  0.72265595  0.31401423    -0.23900
H449        H  0.34718207  0.70842125  0.45263687     0.09600
H450        H  0.38196180  0.70076944  0.41796601     0.13200
H451        H  0.28926437  0.73567077  0.39069735     0.11900
H452        H  0.30300844  0.73884780  0.34313648     0.13100
H453        H  0.33854538  0.73720942  0.30753306     0.12100
H454        H  0.41094555  0.69396400  0.38604367     0.09200
H455        H  0.44572550  0.69678307  0.35025999     0.12500
H456        H  0.38638563  0.73131435  0.29389398     0.14300
C457        C  0.18100733  0.77931473  0.58290055    -0.01200
C458        C  0.16289025  0.80186991  0.58444454    -0.09200
C459        C  0.14430732  0.80437248  0.60659173    -0.18000
C460        C  0.14355238  0.78432859  0.62792711     0.04400
C461        C  0.16335258  0.76254585  0.62692626     0.18600
C462        C  0.18162252  0.76024267  0.60460242    -0.19500
C463        C  0.16427169  0.74252747  0.64771153    -0.20700
C464        C  0.14496858  0.74276075  0.66889762    -0.19300
C465        C  0.12416156  0.76287179  0.66963596     0.19900
C466        C  0.12338478  0.78437810  0.64963471     0.02100
C467        C  0.10172172  0.80411002  0.65166240    -0.14000
C468        C  0.08081128  0.80145506  0.67164826    -0.11700
C469        C  0.08101553  0.77919626  0.69009903     0.01600
C470        C  0.10332123  0.76068569  0.68959219    -0.23900
H471        H  0.16230303  0.81697967  0.56794806     0.09600
H472        H  0.13043829  0.82183884  0.60617462     0.13200
H473        H  0.19604677  0.74303778  0.60378078     0.11900
H474        H  0.17959106  0.72612744  0.64718703     0.13100
H475        H  0.14574719  0.72651214  0.68429827     0.12100
H476        H  0.09984844  0.82119553  0.63750478     0.09200
H477        H  0.06374850  0.81601736  0.67175562     0.12500
H478        H  0.10380089  0.74362609  0.70413795     0.14300
C479        C  0.17131226  0.56521521  0.77272410    -0.01200
C480        C  0.17051961  0.58213820  0.79624504    -0.09200
C481        C  0.14887662  0.60122368  0.79994421    -0.18000
C482        C  0.12726485  0.60367776  0.78019015     0.04400
C483        C  0.12784965  0.58553594  0.75701149     0.18600
C484        C  0.14960846  0.56677408  0.75355829    -0.19500
C485        C  0.10703251  0.58649722  0.73691985    -0.20700
C486        C  0.08591477  0.60576048  0.73877342    -0.19300
C487        C  0.08519315  0.62461303  0.76068627     0.19900
C488        C  0.10547849  0.62375282  0.78202581     0.02100
C489        C  0.10337635  0.64357653  0.80359660    -0.14000
C490        C  0.08292476  0.66428356  0.80298390    -0.11700
C491        C  0.06405386  0.66562336  0.78100134     0.01600
C492        C  0.06477899  0.64507638  0.76059832    -0.23900
H493        H  0.18705652  0.58118414  0.81138581     0.09600
H494        H  0.14976258  0.61400025  0.81820869     0.13200
H495        H  0.14978165  0.55340781  0.73551259     0.11900
H496        H  0.10734513  0.57254499  0.71935036     0.13100
H497        H  0.07037762  0.60634362  0.72255822     0.12100
H498        H  0.11776023  0.64410258  0.82066945     0.09200
H499        H  0.08274119  0.68000213  0.81895968     0.12500
H500        H  0.04996594  0.64574030  0.74369551     0.14300
C501        C  0.52379484  0.81568888  0.33155808    -0.01200
C502        C  0.54466015  0.83575925  0.33012463    -0.09200
C503        C  0.54799634  0.85509100  0.35150625    -0.18000
C504        C  0.53059345  0.85460636  0.37511093     0.04400
C505        C  0.51069049  0.83294151  0.37703210     0.18600
C506        C  0.50741460  0.81398015  0.35535120    -0.19500
C507        C  0.49342456  0.83081644  0.40014280    -0.20700
C508        C  0.49433382  0.85067616  0.42081905    -0.19300
C509        C  0.51245303  0.87317596  0.41881103     0.19900
C510        C  0.53141077  0.87522682  0.39638437     0.02100
C511        C  0.54944435  0.89840777  0.39580647    -0.14000
C512        C  0.54756094  0.91932727  0.41583672    -0.11700
C513        C  0.52767787  0.91774023  0.43683444     0.01600
C514        C  0.51082285  0.89424194  0.43861620    -0.23900
H515        H  0.55764066  0.83723021  0.31191608     0.09600
H516        H  0.56394296  0.87047041  0.34873370     0.13200
H517        H  0.49155283  0.79809555  0.35670168     0.11900
H518        H  0.47854749  0.81408069  0.40187273     0.13100
H519        H  0.48012551  0.84888190  0.43809185     0.12100
H520        H  0.56460948  0.90133690  0.37971375     0.09200
H521        H  0.56076153  0.93738477  0.41413416     0.12500
H522        H  0.49560498  0.89280894  0.45508013     0.14300
C523        C  0.42214495  0.92931417  0.53690299    -0.01200
C524        C  0.39460587  0.93707020  0.53239507    -0.09200
C525        C  0.37317625  0.91781683  0.53488470    -0.18000
C526        C  0.37885877  0.88976824  0.54102485     0.04400
C527        C  0.40694872  0.88210906  0.54581875     0.18600
C528        C  0.42819452  0.90204958  0.54443691    -0.19500
C529        C  0.41381424  0.85434996  0.55036879    -0.20700
C530        C  0.39359805  0.83381175  0.54880040    -0.19300
C531        C  0.36585323  0.84061077  0.54355374     0.19900
C532        C  0.35793123  0.86880823  0.54086568     0.02100
C533        C  0.32946794  0.87473930  0.53736055    -0.14000
C534        C  0.31005967  0.85356408  0.53435515    -0.11700
C535        C  0.31817741  0.82570092  0.53469720     0.01600
C536        C  0.34607510  0.81937426  0.54017389    -0.23900
H537        H  0.38973595  0.95801381  0.52609707     0.09600
H538        H  0.35259271  0.92523828  0.53041481     0.13200
H539        H  0.44966500  0.89594912  0.54722934     0.11900
H540        H  0.43515989  0.84834544  0.55404965     0.13100
H541        H  0.39978092  0.81242127  0.55131377     0.12100
H542        H  0.32154548  0.89554895  0.53660008     0.09200
H543        H  0.28861673  0.85921080  0.53074203     0.12500
H544        H  0.35256841  0.79793688  0.54108236     0.14300
C545        C  0.57137894  0.46747201  0.06698698    -0.01200
C546        C  0.59898611  0.46175891  0.05973791    -0.09200
C547        C  0.61924566  0.45728231  0.08004216    -0.18000
C548        C  0.61265893  0.45884266  0.10851930     0.04400
C549        C  0.58448243  0.46376333  0.11574919     0.18600
C550        C  0.56423160  0.46756370  0.09512676    -0.19500
C551        C  0.57681207  0.46613364  0.14355746    -0.20700
C552        C  0.59672657  0.46534916  0.16434415    -0.19300
C553        C  0.62477404  0.46161377  0.15791742     0.19900
C554        C  0.63309945  0.45716273  0.13003989     0.02100
C555        C  0.66166358  0.45239228  0.12497013    -0.14000
C556        C  0.68124541  0.45423314  0.14635065    -0.11700
C557        C  0.67297239  0.46065394  0.17330905     0.01600
C558        C  0.64469154  0.46355350  0.17910915    -0.23900
H559        H  0.60518047  0.46140071  0.03822037     0.09600
H560        H  0.64006344  0.45362658  0.07280898     0.13200
H561        H  0.54302492  0.47196098  0.10114436     0.11900
H562        H  0.55535460  0.46966935  0.14923225     0.13100
H563        H  0.59020341  0.46834304  0.18557909     0.12100
H564        H  0.66956566  0.44796165  0.10460618     0.09200
H565        H  0.70308269  0.45199216  0.14154782     0.12500
H566        H  0.63830401  0.46857712  0.20002288     0.14300
C567        C  0.66990927  0.56709800  0.28014476    -0.01200
C568        C  0.67671321  0.59204956  0.29323165    -0.09200
C569        C  0.65703766  0.61334985  0.29541234    -0.18000
C570        C  0.62983763  0.61005280  0.28468847     0.04400
C571        C  0.62281370  0.58390206  0.27307045     0.18600
C572        C  0.64283500  0.56301538  0.27063575    -0.19500
C573        C  0.59604748  0.57891538  0.26309782    -0.20700
C574        C  0.57611886  0.59957050  0.26369304    -0.19300
C575        C  0.58260503  0.62593734  0.27372456     0.19900
C576        C  0.60950453  0.63171797  0.28440299     0.02100
C577        C  0.61500117  0.65913620  0.29326080    -0.14000
C578        C  0.59484702  0.67995431  0.29082636    -0.11700
C579        C  0.56842427  0.67401891  0.28013333     0.01600
C580        C  0.56242844  0.64676669  0.27219355    -0.23900
H581        H  0.69767010  0.59558922  0.30055681     0.09600
H582        H  0.66377187  0.63226491  0.30516265     0.13200
H583        H  0.63756694  0.54364751  0.26055009     0.11900
H584        H  0.59055343  0.55894632  0.25446191     0.13100
H585        H  0.55564939  0.59507934  0.25553597     0.12100
H586        H  0.63492729  0.66525780  0.30136065     0.09200
H587        H  0.60008425  0.70084807  0.29704652     0.12500
H588        H  0.54224386  0.64190201  0.26352774     0.14300
C589        C  0.21581199  0.31869879  0.91813323    -0.01200
C590        C  0.20524721  0.34453083  0.92573052    -0.09200
C591        C  0.20228808  0.36554513  0.90609390    -0.18000
C592        C  0.20959086  0.36105668  0.87810099     0.04400
C593        C  0.21813513  0.33397635  0.87028168     0.18600
C594        C  0.22170826  0.31333177  0.89035301    -0.19500
C595        C  0.22390308  0.32787552  0.84261132    -0.20700
C596        C  0.22251702  0.34838873  0.82261279    -0.19300
C597        C  0.21632311  0.37569789  0.82996908     0.19900
C598        C  0.20960983  0.38251660  0.85775764     0.02100
C599        C  0.20480641  0.41071586  0.86415861    -0.14000
C600        C  0.20803896  0.43131767  0.84407675    -0.11700
C601        C  0.21537691  0.42444342  0.81689124     0.01600
C602        C  0.21837204  0.39643565  0.80985867    -0.23900
H603        H  0.20053564  0.34890343  0.94719930     0.09600
H604        H  0.19458646  0.38511261  0.91345196     0.13200
H605        H  0.22968235  0.29319073  0.88449095     0.11900
H606        H  0.22994697  0.30717923  0.83645280     0.13100
H607        H  0.22753598  0.34307930  0.80141877     0.12100
H608        H  0.19984234  0.41760569  0.88474553     0.09200
H609        H  0.20549719  0.45276777  0.85005763     0.12500
H610        H  0.22416956  0.39076236  0.78895563     0.14300
C611        C  0.42004167  0.43562032  0.02243514    -0.01200
C612        C  0.42108572  0.41572056  0.04340269    -0.09200
C613        C  0.40007711  0.39568218  0.04570339    -0.18000
C614        C  0.37733401  0.39519516  0.02705329     0.04400
C615        C  0.37584131  0.41656337  0.00693302     0.18600
C616        C  0.39695566  0.43632832  0.00488967    -0.19500
C617        C  0.35378737  0.41763609  0.98818063    -0.20700
C618        C  0.33367775  0.39715650  0.98801416    -0.19300
C619        C  0.33510160  0.37512283  0.00662400     0.19900
C620        C  0.35649021  0.37400014  0.02689567     0.02100
C621        C  0.35638730  0.35127555  0.04539076    -0.14000
C622        C  0.33654918  0.33010485  0.04300135    -0.11700
C623        C  0.31649413  0.33087931  0.02204278     0.01600
C624        C  0.31560563  0.35374513  0.00438809    -0.23900
H625        H  0.43874748  0.41489793  0.05723585     0.09600
H626        H  0.40250151  0.38046851  0.06179045     0.13200
H627        H  0.39583095  0.45200076  0.98888943     0.11900
H628        H  0.35245808  0.43408142  0.97302898     0.13100
H629        H  0.31722639  0.39822124  0.97275253     0.12100
H630        H  0.37169739  0.34904610  0.06149432     0.09200
H631        H  0.33759692  0.31255071  0.05684322     0.12500
H632        H  0.29990458  0.35459408  0.98831575     0.14300
C633        C  0.57405001  0.57605016  0.96407832    -0.01200
C634        C  0.60190959  0.56850764  0.96081287    -0.09200
C635        C  0.62266722  0.58859783  0.95909555    -0.18000
C636        C  0.61624031  0.61709415  0.96101412     0.04400
C637        C  0.58784560  0.62467234  0.96324293     0.18600
C638        C  0.56714385  0.60426137  0.96432582    -0.19500
C639        C  0.58032814  0.65253070  0.96569219    -0.20700
C640        C  0.60051708  0.67300045  0.96747131    -0.19300
C641        C  0.62870105  0.66613760  0.96646064     0.19900
C642        C  0.63696946  0.63821573  0.96223374     0.02100
C643        C  0.66568109  0.63256442  0.96047784    -0.14000
C644        C  0.68529228  0.65331408  0.96499480    -0.11700
C645        C  0.67707396  0.68045014  0.97104780     0.01600
C646        C  0.64869327  0.68690341  0.97070454    -0.23900
H647        H  0.60786934  0.54691686  0.96041873     0.09600
H648        H  0.64360860  0.58107105  0.95729069     0.13200
H649        H  0.54567065  0.61045403  0.96680972     0.11900
H650        H  0.55869333  0.65845396  0.96720790     0.13100
H651        H  0.59404499  0.69427640  0.97032973     0.12100
H652        H  0.67370337  0.61221975  0.95623594     0.09200
H653        H  0.70707388  0.64784324  0.96441248     0.12500
H654        H  0.64203551  0.70789966  0.97494124     0.14300
C655        C  0.57122436  0.78399587  0.18182292    -0.01200
C656        C  0.56418227  0.79217074  0.15490920    -0.09200
C657        C  0.58449222  0.79491305  0.13443895    -0.18000
C658        C  0.61270782  0.78912099  0.14010415     0.04400
C659        C  0.61992796  0.78217082  0.16775766     0.18600
C660        C  0.59934090  0.77994586  0.18824783    -0.19500
C661        C  0.64754032  0.77641690  0.17462247    -0.20700
C662        C  0.66806508  0.77646852  0.15444471    -0.19300
C663        C  0.66152269  0.78218122  0.12683429     0.19900
C664        C  0.63384375  0.78899572  0.11925553     0.02100
C665        C  0.62843364  0.79431831  0.09098180    -0.14000
C666        C  0.64929436  0.79167074  0.07102305    -0.11700
C667        C  0.67636253  0.78411682  0.07848921     0.01600
C668        C  0.68239936  0.78013442  0.10661710    -0.23900
H669        H  0.54270244  0.79575400  0.14937311     0.09600
H670        H  0.57733206  0.80090579  0.11421738     0.13200
H671        H  0.60516366  0.77365861  0.20896216     0.11900
H672        H  0.65322690  0.77124545  0.19567372     0.13100
H673        H  0.68913405  0.77135623  0.16039028     0.12100
H674        H  0.60812536  0.79985200  0.08350834     0.09200
H675        H  0.64402319  0.79504382  0.04951971     0.12500
H676        H  0.70319287  0.77416917  0.11275398     0.14300
C677        C  0.78120351  0.68170503  0.07989022    -0.01200
C678        C  0.79531487  0.65700414  0.07438526    -0.09200
C679        C  0.79728751  0.63639252  0.09457371    -0.18000
C680        C  0.78417502  0.63955509  0.12057983     0.04400
C681        C  0.77040372  0.66497605  0.12608276     0.18600
C682        C  0.76985344  0.68596058  0.10617989    -0.19500
C683        C  0.75576587  0.66876721  0.15075249    -0.20700
C684        C  0.75304248  0.64722279  0.16945476    -0.19300
C685        C  0.76581814  0.62175729  0.16443010     0.19900
C686        C  0.78271236  0.61791930  0.14063144     0.02100
C687        C  0.79670180  0.59233215  0.13770355    -0.14000
C688        C  0.79262197  0.57093741  0.15673939    -0.11700
C689        C  0.77418853  0.57430480  0.17879063     0.01600
C690        C  0.76127038  0.59986297  0.18282014    -0.23900
H691        H  0.80428954  0.65335600  0.05418093     0.09600
H692        H  0.80790688  0.61766362  0.08871538     0.13200
H693        H  0.75860232  0.70491104  0.11047585     0.11900
H694        H  0.74528107  0.68813159  0.15503919     0.13100
H695        H  0.74055921  0.65039070  0.18781976     0.12100
H696        H  0.81081847  0.58826063  0.12090132     0.09200
H697        H  0.80308330  0.55135793  0.15364619     0.12500
H698        H  0.74747241  0.60262194  0.20032586     0.14300
C699        C  0.81906550  0.71593648  0.92813560    -0.01200
C700        C  0.81103242  0.72109032  0.90085608    -0.09200
C701        C  0.82992106  0.71830150  0.87913848    -0.18000
C702        C  0.85791850  0.71106189  0.88421854     0.04400
C703        C  0.86568843  0.70495163  0.91195624     0.18600
C704        C  0.84614487  0.70701110  0.93353285    -0.19500
C705        C  0.89324978  0.69826973  0.91818462    -0.20700
C706        C  0.91358614  0.69893647  0.89776782    -0.19300
C707        C  0.90683676  0.70589283  0.87048185     0.19900
C708        C  0.87875697  0.71112618  0.86310539     0.02100
C709        C  0.87296757  0.71716276  0.83508593    -0.14000
C710        C  0.89427475  0.71957963  0.81566300    -0.11700
C711        C  0.92212978  0.71606724  0.82330749     0.01600
C712        C  0.92814410  0.70850648  0.85070386    -0.23900
H713        H  0.79019023  0.72823610  0.89642735     0.09600
H714        H  0.82224882  0.72317113  0.85879838     0.13200
H715        H  0.85246964  0.70344987  0.95475445     0.11900
H716        H  0.89931773  0.69342660  0.93920826     0.13100
H717        H  0.93487379  0.69455527  0.90350020     0.12100
H718        H  0.85221003  0.72059514  0.82756738     0.09200
H719        H  0.88886685  0.72517231  0.79466517     0.12500
H720        H  0.94953754  0.70536557  0.85688328     0.14300
C721        C  0.53168533  0.32749199  0.81577435    -0.01200
C722        C  0.55337733  0.32806534  0.83503064    -0.09200
C723        C  0.55546315  0.34987438  0.85412951    -0.18000
C724        C  0.53577091  0.37166163  0.85430777     0.04400
C725        C  0.51499079  0.37153128  0.83339923     0.18600
C726        C  0.51329440  0.34976371  0.81449427    -0.19500
C727        C  0.49511398  0.39248715  0.83207150    -0.20700
C728        C  0.49441034  0.41301606  0.85198763    -0.19300
C729        C  0.51362213  0.41309938  0.87362722     0.19900
C730        C  0.53508787  0.39297178  0.87489284     0.02100
C731        C  0.55412147  0.39467324  0.89722218    -0.14000
C732        C  0.55101051  0.41475222  0.91801312    -0.11700
C733        C  0.52882818  0.43341991  0.91712537     0.01600
C734        C  0.51076525  0.43284330  0.89451017    -0.23900
H735        H  0.56790373  0.31102433  0.83618691     0.09600
H736        H  0.57210620  0.34873389  0.86898454     0.13200
H737        H  0.49676954  0.34960887  0.79922955     0.11900
H738        H  0.47945292  0.39254288  0.81596622     0.13100
H739        H  0.47824173  0.42854874  0.85085199     0.12100
H740        H  0.57118757  0.38044769  0.89943223     0.09200
H741        H  0.56531817  0.41501345  0.93529255     0.12500
H742        H  0.49386716  0.44762729  0.89344222     0.14300
C743        C  0.46881920  0.17166735  0.68136162    -0.01200
C744        C  0.46361114  0.14427923  0.68925282    -0.09200
C745        C  0.46004243  0.12358212  0.66939342    -0.18000
C746        C  0.46201890  0.12962830  0.64085055     0.04400
C747        C  0.46594954  0.15768932  0.63302364     0.18600
C748        C  0.46901237  0.17830680  0.65317638    -0.19500
C749        C  0.46795382  0.16495008  0.60512303    -0.20700
C750        C  0.46738069  0.14475777  0.58473358    -0.19300
C751        C  0.46485261  0.11683563  0.59178169     0.19900
C752        C  0.46148437  0.10882863  0.61985633     0.02100
C753        C  0.45902090  0.08027548  0.62569800    -0.14000
C754        C  0.46176934  0.06053614  0.60478497    -0.11700
C755        C  0.46660256  0.06856961  0.57738337     0.01600
C756        C  0.46700615  0.09680640  0.57093628    -0.23900
H757        H  0.46298334  0.13863388  0.71090670     0.09600
H758        H  0.45653663  0.10297764  0.67708106     0.13200
H759        H  0.47288204  0.19944138  0.64677406     0.11900
H760        H  0.47074976  0.18634120  0.59905622     0.13100
H761        H  0.46976480  0.15097041  0.56334314     0.12100
H762        H  0.45588374  0.07246680  0.64630598     0.09200
H763        H  0.46099245  0.03884650  0.61030001     0.12500
H764        H  0.47054108  0.10332234  0.54978757     0.14300
C765        C  0.43653711  0.21318937  0.83200907    -0.01200
C766        C  0.41604217  0.19273553  0.83010500    -0.09200
C767        C  0.39588624  0.19013770  0.85088294    -0.18000
C768        C  0.39583462  0.20808136  0.87410875     0.04400
C769        C  0.41798298  0.22741184  0.87653460     0.18600
C770        C  0.43794924  0.22963410  0.85573398    -0.19500
C771        C  0.41943468  0.24552678  0.89901553    -0.20700
C772        C  0.39839053  0.24617045  0.91844078    -0.19300
C773        C  0.37548953  0.22861990  0.91589502     0.19900
C774        C  0.37412785  0.20863657  0.89431305     0.02100
C775        C  0.35052243  0.19111159  0.89339267    -0.14000
C776        C  0.32852058  0.19461217  0.91209265    -0.11700
C777        C  0.32949779  0.21566233  0.93197171     0.01600
C778        C  0.35337113  0.23190073  0.93425600    -0.23900
H779        H  0.41472164  0.17975006  0.81187940     0.09600
H780        H  0.38009540  0.17463364  0.84777045     0.13200
H781        H  0.45409193  0.24521334  0.85741920     0.11900
H782        H  0.43648633  0.26002497  0.90105684     0.13100
H783        H  0.39961817  0.26114071  0.93510860     0.12100
H784        H  0.34817870  0.17510780  0.87801647     0.09200
H785        H  0.31019868  0.18176490  0.91015260     0.12500
H786        H  0.35431018  0.24793847  0.94996053     0.14300
C787        C  0.32429361  0.42203500  0.72131412    -0.01200
C788        C  0.35036613  0.42716270  0.70960763    -0.09200
C789        C  0.37020122  0.40606926  0.70771763    -0.18000
C790        C  0.36468765  0.37924630  0.71811509     0.04400
C791        C  0.33838892  0.37446969  0.73050990     0.18600
C792        C  0.31847332  0.39552284  0.73148143    -0.19500
C793        C  0.33224963  0.34890024  0.74254445    -0.20700
C794        C  0.35198045  0.32805302  0.74322838    -0.19300
C795        C  0.37801882  0.33198147  0.73115107     0.19900
C796        C  0.38452206  0.35725549  0.71758085     0.02100
C797        C  0.41068239  0.35938567  0.70442321    -0.14000
C798        C  0.43009617  0.33792971  0.70619065    -0.11700
C799        C  0.42409580  0.31405272  0.72133405     0.01600
C800        C  0.39788379  0.31095721  0.73324125    -0.23900
H801        H  0.35545799  0.44755603  0.70188354     0.09600
H802        H  0.38988681  0.41154222  0.69869084     0.13200
H803        H  0.29859716  0.39144786  0.74116140     0.11900
H804        H  0.31225572  0.34522117  0.75210952     0.13100
H805        H  0.34686534  0.30873842  0.75337481     0.12100
H806        H  0.41678611  0.37744553  0.69289243     0.09200
H807        H  0.45037502  0.34060782  0.69691728     0.12500
H808        H  0.39322540  0.29231905  0.74481280     0.14300
C809        C  0.08015311  0.47137267  0.56283177    -0.01200
C810        C  0.07831453  0.44981893  0.58204718    -0.09200
C811        C  0.09964410  0.44543282  0.60128756    -0.18000
C812        C  0.12360532  0.46242741  0.60154264     0.04400
C813        C  0.12586151  0.48312264  0.58076868     0.18600
C814        C  0.10423945  0.48747001  0.56196460    -0.19500
C815        C  0.14933391  0.50002864  0.57927504    -0.20700
C816        C  0.17018515  0.49783518  0.59883423    -0.19300
C817        C  0.16786237  0.47893210  0.62052886     0.19900
C818        C  0.14494751  0.46045983  0.62205595     0.02100
C819        C  0.14392542  0.44192152  0.64476603    -0.14000
C820        C  0.16379584  0.44322688  0.66599054    -0.11700
C821        C  0.18513528  0.46281639  0.66489182     0.01600
C822        C  0.18767949  0.47962744  0.64156667    -0.23900
H823        H  0.05989890  0.43699496  0.58286600     0.09600
H824        H  0.09664303  0.42893195  0.61594143     0.13200
H825        H  0.10598056  0.50384187  0.54674506     0.11900
H826        H  0.15127421  0.51554364  0.56323809     0.13100
H827        H  0.18778140  0.51176371  0.59756067     0.12100
H828        H  0.12741541  0.42708333  0.64725167     0.09200
H829        H  0.16155437  0.43006558  0.68395350     0.12500
H830        H  0.20445041  0.49460094  0.64059082     0.14300
C831        C  0.81988131  0.52735412  0.31941078    -0.01200
C832        C  0.81245718  0.53463008  0.34649262    -0.09200
C833        C  0.83253289  0.53705795  0.36726565    -0.18000
C834        C  0.86086895  0.53182006  0.36171678     0.04400
C835        C  0.86838613  0.52539655  0.33399619     0.18600
C836        C  0.84805093  0.52355137  0.31322487    -0.19500
C837        C  0.89606092  0.51986798  0.32728018    -0.20700
C838        C  0.91640342  0.51975521  0.34763346    -0.19300
C839        C  0.90962432  0.52524435  0.37523015     0.19900
C840        C  0.88187398  0.53179515  0.38270571     0.02100
C841        C  0.87633952  0.53718386  0.41096480    -0.14000
C842        C  0.89721550  0.53493036  0.43099687    -0.11700
C843        C  0.92435179  0.52762873  0.42357794     0.01600
C844        C  0.93042378  0.52344150  0.39549380    -0.23900
H845        H  0.79088881  0.53789441  0.35185396     0.09600
H846        H  0.82511309  0.54237740  0.38759502     0.13200
H847        H  0.85412418  0.51784957  0.29240012     0.11900
H848        H  0.90194437  0.51502893  0.30619483     0.13100
H849        H  0.93754962  0.51485119  0.34180152     0.12100
H850        H  0.85597963  0.54267443  0.41832950     0.09200
H851        H  0.89194759  0.53852963  0.45246531     0.12500
H852        H  0.95130271  0.51778797  0.38936092     0.14300
C853        C  0.16350205  0.69068069  0.46466014    -0.01200
C854        C  0.16462322  0.67206766  0.44245994    -0.09200
C855        C  0.14366404  0.65216010  0.43878314    -0.18000
C856        C  0.12092305  0.65048687  0.45729531     0.04400
C857        C  0.11911093  0.67090589  0.47844450     0.18600
C858        C  0.14020163  0.69054002  0.48187426    -0.19500
C859        C  0.09690566  0.67094549  0.49700170    -0.20700
C860        C  0.07718010  0.65012983  0.49617777    -0.19300
C861        C  0.07929176  0.62868173  0.47689235     0.19900
C862        C  0.10062084  0.62876936  0.45658904     0.02100
C863        C  0.10130615  0.60638438  0.43756348    -0.14000
C864        C  0.08278229  0.58401226  0.43999861    -0.11700
C865        C  0.06318670  0.58347741  0.46135232     0.01600
C866        C  0.06091495  0.60639165  0.47888753    -0.23900
H867        H  0.18242448  0.67195393  0.42880774     0.09600
H868        H  0.14619152  0.63785329  0.42185330     0.13200
H869        H  0.13901614  0.70522749  0.49882290     0.11900
H870        H  0.09527070  0.68670671  0.51288146     0.13100
H871        H  0.06072620  0.65024552  0.51145369     0.12100
H872        H  0.11654805  0.60515751  0.42130450     0.09200
H873        H  0.08474266  0.56652321  0.42611981     0.12500
H874        H  0.04541661  0.60626343  0.49516066     0.14300
C875        C  0.97258485  0.57770073  0.56787799    -0.01200
C876        C  0.95019663  0.57787424  0.58632623    -0.09200
C877        C  0.94757145  0.59908213  0.60612170    -0.18000
C878        C  0.96721859  0.62092007  0.60771955     0.04400
C879        C  0.98901104  0.62109895  0.58791104     0.18600
C880        C  0.99149625  0.59970309  0.56856026    -0.19500
C881        C  0.00871780  0.64232442  0.58776426    -0.20700
C882        C  0.00797524  0.66302315  0.60757038    -0.19300
C883        C  0.98765145  0.66289252  0.62817013     0.19900
C884        C  0.96663056  0.64221879  0.62844663     0.02100
C885        C  0.94668201  0.64344415  0.64996995    -0.14000
C886        C  0.94850669  0.66350370  0.67100423    -0.11700
C887        C  0.97017985  0.68284544  0.67115018     0.01600
C888        C  0.98904939  0.68284380  0.64914068    -0.23900
H889        H  0.93523668  0.56115268  0.58604283     0.09600
H890        H  0.93021932  0.59771436  0.62010290     0.13200
H891        H  0.00859701  0.60003976  0.55397612     0.11900
H892        H  0.02516512  0.64265707  0.57248468     0.13100
H893        H  0.02389391  0.67887320  0.60719766     0.12100
H894        H  0.92998930  0.62867470  0.65150637     0.09200
H895        H  0.93370982  0.66306356  0.68783653     0.12500
H896        H  0.00571219  0.69794903  0.64888531     0.14300
C897        C  0.33401761  0.03885557  0.31935343    -0.01200
C898        C  0.35891205  0.02518523  0.31383789    -0.09200
C899        C  0.38079769  0.02625518  0.33249954    -0.18000
C900        C  0.37807617  0.04039122  0.35793331     0.04400
C901        C  0.35367612  0.05630900  0.36240767     0.18600
C902        C  0.33185602  0.05556199  0.34296695    -0.19500
C903        C  0.35078227  0.07168235  0.38681926    -0.20700
C904        C  0.37104090  0.07054948  0.40740673    -0.19300
C905        C  0.39430501  0.05343032  0.40439610     0.19900
C906        C  0.39815693  0.03822971  0.37947438     0.02100
C907        C  0.42100187  0.02002134  0.37781518    -0.14000
C908        C  0.43862526  0.01628203  0.40021346    -0.11700
C909        C  0.43469466  0.03096023  0.42478522     0.01600
C910        C  0.41301695  0.05020113  0.42661014    -0.23900
H911        H  0.36110263  0.01275906  0.29529375     0.09600
H912        H  0.39926016  0.01516982  0.32666431     0.13200
H913        H  0.31259062  0.06636331  0.34711487     0.11900
H914        H  0.33244492  0.08417438  0.39027964     0.13100
H915        H  0.36792377  0.08225936  0.42627234     0.12100
H916        H  0.42517797  0.00732526  0.35999942     0.09200
H917        H  0.45526034  0.00130142  0.39849976     0.12500
H918        H  0.40970059  0.06126759  0.44584014     0.14300
C919        C  0.28038150  0.18174277  0.07335623    -0.01200
C920        C  0.28252239  0.19085939  0.10084037    -0.09200
C921        C  0.28595818  0.17206805  0.12256978    -0.18000
C922        C  0.28716532  0.14324563  0.11754233     0.04400
C923        C  0.28590144  0.13416495  0.08958078     0.18600
C924        C  0.28278719  0.15331741  0.06792794    -0.19500
C925        C  0.28674024  0.10590162  0.08337103    -0.20700
C926        C  0.28750558  0.08632862  0.10437080    -0.19300
C927        C  0.28770767  0.09449684  0.13214289     0.19900
C928        C  0.28839163  0.12304939  0.13919630     0.02100
C929        C  0.28930791  0.13002896  0.16762514    -0.14000
C930        C  0.28746307  0.10959874  0.18804503    -0.11700
C931        C  0.28495552  0.08155194  0.18095375     0.01600
C932        C  0.28614839  0.07418425  0.15288255    -0.23900
H933        H  0.28080889  0.21266528  0.10576922     0.09600
H934        H  0.28682806  0.18066781  0.14302333     0.13200
H935        H  0.28126227  0.14589790  0.04684009     0.11900
H936        H  0.28599344  0.09883268  0.06211410     0.13100
H937        H  0.28729038  0.06460842  0.09883594     0.12100
H938        H  0.29075108  0.15102629  0.17472131     0.09200
H939        H  0.28712598  0.11596912  0.20953569     0.12500
H940        H  0.28460137  0.05261448  0.14700466     0.14300
C941        C  0.21477985  0.83437182  0.43380066    -0.01200
C942        C  0.22314633  0.86094993  0.44189799    -0.09200
C943        C  0.22187259  0.88314742  0.42356833    -0.18000
C944        C  0.21200031  0.87959562  0.39626779     0.04400
C945        C  0.20150007  0.85312995  0.38874001     0.18600
C946        C  0.20327815  0.83074852  0.40735085    -0.19500
C947        C  0.19014245  0.84901012  0.36237979    -0.20700
C948        C  0.19028461  0.87019530  0.34286443    -0.19300
C949        C  0.20238064  0.89585010  0.34897993     0.19900
C950        C  0.21310433  0.90103225  0.37592723     0.02100
C951        C  0.22597566  0.92688699  0.38085890    -0.14000
C952        C  0.22960050  0.94596484  0.35956367    -0.11700
C953        C  0.21972020  0.94049309  0.33294727     0.01600
C954        C  0.20519971  0.91584404  0.32793880    -0.23900
H955        H  0.23186889  0.86447094  0.46225535     0.09600
H956        H  0.22914553  0.90274729  0.43133359     0.13200
H957        H  0.19627694  0.81038275  0.40102667     0.11900
H958        H  0.18161615  0.82907180  0.35660766     0.13100
H959        H  0.18187934  0.86610502  0.32247193     0.12100
H960        H  0.23469622  0.93250586  0.40058993     0.09200
H961        H  0.24084216  0.96493502  0.36375559     0.12500
H962        H  0.19781044  0.91143195  0.30720903     0.14300
C963        C  0.41805627  0.81886759  0.21962086    -0.01200
C964        C  0.41976910  0.83908442  0.19898370    -0.09200
C965        C  0.39897174  0.85932949  0.19648057    -0.18000
C966        C  0.37587365  0.85974870  0.21466305     0.04400
C967        C  0.37345190  0.83774016  0.23399056     0.18600
C968        C  0.39428594  0.81772329  0.23616256    -0.19500
C969        C  0.35095680  0.83648878  0.25216176    -0.20700
C970        C  0.33168821  0.85770153  0.25302857    -0.19300
C971        C  0.33439252  0.88061837  0.23567114     0.19900
C972        C  0.35583913  0.88168395  0.21549588     0.02100
C973        C  0.35685271  0.90525202  0.19810944    -0.14000
C974        C  0.33843803  0.92747298  0.20191380    -0.11700
C975        C  0.31870682  0.92686580  0.22318299     0.01600
C976        C  0.31632074  0.90298919  0.23930111    -0.23900
H977        H  0.43784386  0.84009332  0.18573420     0.09600
H978        H  0.40195786  0.87490879  0.18083938     0.13200
H979        H  0.39254819  0.80168156  0.25173659     0.11900
H980        H  0.34883540  0.81948600  0.26659142     0.13100
H981        H  0.31507453  0.85661941  0.26808597     0.12100
H982        H  0.37209966  0.90736325  0.18194773     0.09200
H983        H  0.34042700  0.94563431  0.18898716     0.12500
H984        H  0.30067341  0.90211824  0.25539438     0.14300
C985        C  0.92904673  0.82355715  0.72321214    -0.01200
C986        C  0.90254955  0.81700058  0.71314259    -0.09200
C987        C  0.88236093  0.83752015  0.70981923    -0.18000
C988        C  0.88789217  0.86536272  0.71703293     0.04400
C989        C  0.91493150  0.87190553  0.72690659     0.18600
C990        C  0.93521237  0.85123463  0.72938220    -0.19500
C991        C  0.92134120  0.89886100  0.73532042    -0.20700
C992        C  0.90113512  0.91930066  0.73529269    -0.19300
C993        C  0.87420389  0.91346463  0.72619764     0.19900
C994        C  0.86734566  0.88670972  0.71599081     0.02100
C995        C  0.84001959  0.88243787  0.70596317    -0.14000
C996        C  0.81998913  0.90335299  0.70770618    -0.11700
C997        C  0.82660855  0.92891783  0.71950545     0.01600
C998        C  0.85381110  0.93404208  0.72816822    -0.23900
H999        H  0.89720125  0.79579391  0.70821970     0.09600
H1000       H  0.86236109  0.83079570  0.70243345     0.13200
H1001       H  0.95552025  0.85658739  0.73745193     0.11900
H1002       H  0.94191950  0.90397682  0.74281490     0.13100
H1003       H  0.90652082  0.93974762  0.74280483     0.12100
H1004       H  0.83339720  0.86304504  0.69714542     0.09200
H1005       H  0.79893124  0.89907975  0.70109732     0.12500
H1006       H  0.85885041  0.95391141  0.73736004     0.14300
C1007       C  0.68308078  0.07498611  0.79002951    -0.01200
C1008       C  0.69089403  0.10291244  0.79051565    -0.09200
C1009       C  0.67104751  0.12373619  0.79333673    -0.18000
C1010       C  0.64249603  0.11727837  0.79545922     0.04400
C1011       C  0.63485263  0.08889750  0.79657687     0.18600
C1012       C  0.65510381  0.06816167  0.79425600    -0.19500
C1013       C  0.60688613  0.08132066  0.79845941    -0.20700
C1014       C  0.58617137  0.10126607  0.79738148    -0.19300
C1015       C  0.59295009  0.12928741  0.79478320     0.19900
C1016       C  0.62119435  0.13781750  0.79491412     0.02100
C1017       C  0.62682744  0.16646197  0.79323106    -0.14000
C1018       C  0.60549106  0.18552758  0.78921818    -0.11700
C1019       C  0.57782804  0.17681739  0.78699023     0.01600
C1020       C  0.57165245  0.14872660  0.79088857    -0.23900
H1021       H  0.71235827  0.10884471  0.78751856     0.09600
H1022       H  0.67865509  0.14467513  0.79262530     0.13200
H1023       H  0.64877927  0.04663718  0.79419501     0.11900
H1024       H  0.60093858  0.05973184  0.79963447     0.13100
H1025       H  0.56468093  0.09465063  0.79775684     0.12100
H1026       H  0.64754710  0.17477252  0.79424981     0.09200
H1027       H  0.61087937  0.20715073  0.78692009     0.12500
H1028       H  0.55029766  0.14173429  0.78974750     0.14300
C1029       C  0.57445103  0.96704392  0.57638559    -0.01200
C1030       C  0.60222431  0.96273733  0.56897203    -0.09200
C1031       C  0.62291015  0.96061923  0.58916099    -0.18000
C1032       C  0.61651984  0.96316636  0.61762622     0.04400
C1033       C  0.58821747  0.96669906  0.62504857     0.18600
C1034       C  0.56759082  0.96818037  0.60457432    -0.19500
C1035       C  0.58071554  0.96985984  0.65282801    -0.20700
C1036       C  0.60084618  0.97076449  0.67340352    -0.19300
C1037       C  0.62897534  0.96814180  0.66677379     0.19900
C1038       C  0.63719433  0.96350768  0.63889513     0.02100
C1039       C  0.66581872  0.96024562  0.63349117    -0.14000
C1040       C  0.68547017  0.96327472  0.65451117    -0.11700
C1041       C  0.67740843  0.96943972  0.68170027     0.01600
C1042       C  0.64899345  0.97099855  0.68778861    -0.23900
H1043       H  0.60816615  0.96168598  0.54740398     0.09600
H1044       H  0.64380368  0.95787184  0.58175100     0.13200
H1045       H  0.54621681  0.97154295  0.61068692     0.11900
H1046       H  0.55915105  0.97245011  0.65862426     0.13100
H1047       H  0.59438630  0.97403796  0.69461555     0.12100
H1048       H  0.67375628  0.95582791  0.61314330     0.09200
H1049       H  0.70722125  0.96145916  0.64919976     0.12500
H1050       H  0.64240131  0.97549309  0.70874631     0.14300
C1051       C  0.72109413  0.82212896  0.92827679    -0.01200
C1052       C  0.69992711  0.84193036  0.92897124    -0.09200
C1053       C  0.69732471  0.86131754  0.90750193    -0.18000
C1054       C  0.71585376  0.86113938  0.88471698     0.04400
C1055       C  0.73601716  0.83969786  0.88360984     0.18600
C1056       C  0.73835329  0.82065232  0.90512926    -0.19500
C1057       C  0.75459327  0.83784334  0.86153999    -0.20700
C1058       C  0.75468231  0.85774328  0.84105707    -0.19300
C1059       C  0.73619474  0.87994201  0.84217784     0.19900
C1060       C  0.71597507  0.88179338  0.86350730     0.02100
C1061       C  0.69767406  0.90476210  0.86304245    -0.14000
C1062       C  0.70046280  0.92563738  0.84304085    -0.11700
C1063       C  0.72154922  0.92412950  0.82319119     0.01600
C1064       C  0.73867571  0.90084455  0.82247941    -0.23900
H1065       H  0.68614940  0.84313284  0.94660972     0.09600
H1066       H  0.68113310  0.87655089  0.90956173     0.13200
H1067       H  0.75433464  0.80486969  0.90420803     0.11900
H1068       H  0.76972985  0.82129787  0.86052326     0.13100
H1069       H  0.76988499  0.85617572  0.82462018     0.12100
H1070       H  0.68156302  0.90745691  0.87825889     0.09200
H1071       H  0.68691740  0.94348379  0.84381407     0.12500
H1072       H  0.75471807  0.89936059  0.80680987     0.14300
C1073       C  0.67911172  0.17404578  0.47313184    -0.01200
C1074       C  0.68688398  0.14644530  0.46871705    -0.09200
C1075       C  0.66688034  0.12557859  0.46619478    -0.18000
C1076       C  0.63821710  0.13158317  0.46838774     0.04400
C1077       C  0.63042675  0.15970007  0.47213331     0.18600
C1078       C  0.65072753  0.18050364  0.47413992    -0.19500
C1079       C  0.60242326  0.16685811  0.47481087    -0.20700
C1080       C  0.58196817  0.14658865  0.47492102    -0.19300
C1081       C  0.58894679  0.11863983  0.47209862     0.19900
C1082       C  0.61707300  0.11071865  0.46807629     0.02100
C1083       C  0.62278247  0.08220060  0.46477002    -0.14000
C1084       C  0.60174954  0.06237903  0.46715950    -0.11700
C1085       C  0.57427689  0.07020465  0.47265065     0.01600
C1086       C  0.56798109  0.09851179  0.47421413    -0.23900
H1087       H  0.70860244  0.14079380  0.46773666     0.09600
H1088       H  0.67455542  0.10486121  0.46326961     0.13200
H1089       H  0.64432013  0.20172006  0.47758707     0.11900
H1090       H  0.59633208  0.18826160  0.47754690     0.13100
H1091       H  0.56055149  0.15279688  0.47776695     0.12100
H1092       H  0.64338851  0.07449700  0.46089434     0.09200
H1093       H  0.60724064  0.04072951  0.46545264     0.12500
H1094       H  0.54681574  0.10497082  0.47819527     0.14300
C1095       C  0.92936770  0.42687096  0.53020245    -0.01200
C1096       C  0.90285963  0.43354253  0.54012793    -0.09200
C1097       C  0.88274594  0.41296843  0.54414269    -0.18000
C1098       C  0.88834026  0.38491879  0.53777829     0.04400
C1099       C  0.91549003  0.37821903  0.52841357     0.18600
C1100       C  0.93566013  0.39897086  0.52517675    -0.19500
C1101       C  0.92213226  0.35097138  0.52122594    -0.20700
C1102       C  0.90204078  0.33037417  0.52181695    -0.19300
C1103       C  0.87489660  0.33637715  0.53006907     0.19900
C1104       C  0.86778532  0.36348041  0.53912336     0.02100
C1105       C  0.84017476  0.36799559  0.54814185    -0.14000
C1106       C  0.82017867  0.34696683  0.54647717    -0.11700
C1107       C  0.82705922  0.32097510  0.53577432     0.01600
C1108       C  0.85454262  0.31563167  0.52821829    -0.23900
H1109       H  0.89742772  0.45486756  0.54434182     0.09600
H1110       H  0.86274682  0.41977221  0.55139148     0.13200
H1111       H  0.95600248  0.39343589  0.51738434     0.11900
H1112       H  0.94282379  0.34570857  0.51422140     0.13100
H1113       H  0.90765231  0.30968676  0.51522404     0.12100
H1114       H  0.83327629  0.38770981  0.55594248     0.09200
H1115       H  0.79892895  0.35147546  0.55220779     0.12500
H1116       H  0.85983976  0.29548258  0.51986119     0.14300
C1117       C  0.71842995  0.32384659  0.43009544    -0.01200
C1118       C  0.70686228  0.31607938  0.40469496    -0.09200
C1119       C  0.70445454  0.33529249  0.38313334    -0.18000
C1120       C  0.71334241  0.36303069  0.38659324     0.04400
C1121       C  0.72321096  0.37104769  0.41317143     0.18600
C1122       C  0.72605390  0.35143018  0.43435308    -0.19500
C1123       C  0.73100861  0.39844074  0.41828285    -0.20700
C1124       C  0.73007119  0.41800087  0.39733394    -0.19300
C1125       C  0.72200208  0.41051691  0.37055012     0.19900
C1126       C  0.71347295  0.38296642  0.36466743     0.02100
C1127       C  0.70663580  0.37644682  0.33691055    -0.14000
C1128       C  0.70903981  0.39625524  0.31587652    -0.11700
C1129       C  0.71766223  0.42332618  0.32185970     0.01600
C1130       C  0.72346456  0.43033522  0.34942723    -0.23900
H1131       H  0.70093702  0.29476186  0.40106052     0.09600
H1132       H  0.69593298  0.32779572  0.36391894     0.13200
H1133       H  0.73489332  0.35746777  0.45410061     0.11900
H1134       H  0.73821471  0.40472795  0.43857861     0.13100
H1135       H  0.73654731  0.43898338  0.40193355     0.12100
H1136       H  0.70027875  0.35598426  0.33069387     0.09200
H1137       H  0.70448232  0.39023365  0.29477552     0.12500
H1138       H  0.73050171  0.45106963  0.35437312     0.14300
C1139       C  0.67617075  0.28177011  0.57285565    -0.01200
C1140       C  0.64824978  0.28130208  0.56469134    -0.09200
C1141       C  0.62696991  0.28367762  0.58409313    -0.18000
C1142       C  0.63288669  0.28647428  0.61259453     0.04400
C1143       C  0.66119717  0.28867067  0.62063953     0.18600
C1144       C  0.68245067  0.28638937  0.60083659    -0.19500
C1145       C  0.66817374  0.29200190  0.64854817    -0.20700
C1146       C  0.64774725  0.29161802  0.66883405    -0.19300
C1147       C  0.61985007  0.28777800  0.66172683     0.19900
C1148       C  0.61188478  0.28594974  0.63346709     0.02100
C1149       C  0.58337623  0.28240819  0.62745269    -0.14000
C1150       C  0.56397280  0.27893247  0.64857382    -0.11700
C1151       C  0.57216129  0.27906760  0.67640284     0.01600
C1152       C  0.60003517  0.28453234  0.68279674    -0.23900
H1153       H  0.64267947  0.27805946  0.54322971     0.09600
H1154       H  0.60612285  0.28248658  0.57614236     0.13200
H1155       H  0.70394383  0.28711032  0.60744396     0.11900
H1156       H  0.68967066  0.29408834  0.65481753     0.13100
H1157       H  0.65392754  0.29341270  0.69031280     0.12100
H1158       H  0.57546443  0.28138274  0.60664351     0.09200
H1159       H  0.54253923  0.27515767  0.64294700     0.12500
H1160       H  0.60660562  0.28511361  0.70423259     0.14300
C1161       C  0.78410028  0.17697223  0.57490775    -0.01200
C1162       C  0.78930321  0.14945154  0.56731838    -0.09200
C1163       C  0.79107318  0.12862140  0.58728295    -0.18000
C1164       C  0.78738678  0.13459986  0.61570051     0.04400
C1165       C  0.78360087  0.16273728  0.62339700     0.18600
C1166       C  0.78220437  0.18350097  0.60313923    -0.19500
C1167       C  0.78022680  0.16994493  0.65122589    -0.20700
C1168       C  0.77967516  0.14972486  0.67159678    -0.19300
C1169       C  0.78234271  0.12174732  0.66466854     0.19900
C1170       C  0.78652186  0.11372579  0.63666811     0.02100
C1171       C  0.78871190  0.08512401  0.63085945    -0.14000
C1172       C  0.78598835  0.06541107  0.65180269    -0.11700
C1173       C  0.78130371  0.07340038  0.67930065     0.01600
C1174       C  0.78004574  0.10170869  0.68557727    -0.23900
H1175       H  0.79115952  0.14376115  0.54573118     0.09600
H1176       H  0.79471466  0.10796606  0.57974116     0.13200
H1177       H  0.77836765  0.20469070  0.60941381     0.11900
H1178       H  0.77748166  0.19136879  0.65724993     0.13100
H1179       H  0.77656353  0.15599442  0.69289451     0.12100
H1180       H  0.79191022  0.07726748  0.61025360     0.09200
H1181       H  0.78710884  0.04372160  0.64628324     0.12500
H1182       H  0.77627925  0.10823486  0.70670029     0.14300
C1183       C  0.18034609  0.08064309  0.28826367    -0.01200
C1184       C  0.15274429  0.07230801  0.29206748    -0.09200
C1185       C  0.13153375  0.09172478  0.29499274    -0.18000
C1186       C  0.13715453  0.12040077  0.29386824     0.04400
C1187       C  0.16534996  0.12882062  0.29160142     0.18600
C1188       C  0.18659316  0.10900507  0.28916240    -0.19500
C1189       C  0.17205518  0.15696993  0.29039799    -0.20700
C1190       C  0.15127095  0.17690006  0.28965613    -0.19300
C1191       C  0.12326929  0.16918962  0.29032416     0.19900
C1192       C  0.11578772  0.14092656  0.29344581     0.02100
C1193       C  0.08719445  0.13438993  0.29472784    -0.14000
C1194       C  0.06698745  0.15470857  0.29081858    -0.11700
C1195       C  0.07447148  0.18224923  0.28575139     0.01600
C1196       C  0.10270128  0.18947249  0.28664871    -0.23900
H1197       H  0.14726783  0.05058091  0.29186368     0.09600
H1198       H  0.11085188  0.08356095  0.29711282     0.13200
H1199       H  0.20786468  0.11579533  0.28646183     0.11900
H1200       H  0.19350300  0.16358218  0.28899569     0.13100
H1201       H  0.15713808  0.19845183  0.28769054     0.12100
H1202       H  0.07972215  0.11364788  0.29793368     0.09200
H1203       H  0.04537843  0.14853918  0.29073378     0.12500
H1204       H  0.10883384  0.21077115  0.28322176     0.14300
C1205       C  0.82209980  0.42639264  0.21358402    -0.01200
C1206       C  0.81658039  0.40005449  0.20273285    -0.09200
C1207       C  0.83797578  0.38073567  0.19915776    -0.18000
C1208       C  0.86555776  0.38693318  0.20721184     0.04400
C1209       C  0.87099077  0.41382048  0.21789490     0.18600
C1210       C  0.84957614  0.43332494  0.22024022    -0.19500
C1211       C  0.89748069  0.42072721  0.22756623    -0.20700
C1212       C  0.91836978  0.40100432  0.22840506    -0.19300
C1213       C  0.91357217  0.37417882  0.21866642     0.19900
C1214       C  0.88758122  0.36705154  0.20664827     0.02100
C1215       C  0.88465970  0.34008255  0.19548814    -0.14000
C1216       C  0.90586860  0.32043444  0.19828679    -0.11700
C1217       C  0.93030596  0.32704632  0.21248117     0.01600
C1218       C  0.93433841  0.35413300  0.22185827    -0.23900
H1219       H  0.79554634  0.39418356  0.19741921     0.09600
H1220       H  0.83210924  0.36072272  0.19122412     0.13200
H1221       H  0.85410815  0.45350530  0.22896992     0.11900
H1222       H  0.90175066  0.44121003  0.23566564     0.13100
H1223       H  0.93829837  0.40665410  0.23716467     0.12100
H1224       H  0.86607230  0.33350465  0.18493850     0.09200
H1225       H  0.90253272  0.29960386  0.19069537     0.12500
H1226       H  0.95348043  0.35937642  0.23247375     0.14300
C1227       C  0.17446785  0.28181162  0.06683904    -0.01200
C1228       C  0.18207767  0.28973255  0.09367121    -0.09200
C1229       C  0.16216717  0.29265552  0.11442859    -0.18000
C1230       C  0.13378174  0.28736312  0.10911874     0.04400
C1231       C  0.12600385  0.28036709  0.08161291     0.18600
C1232       C  0.14622225  0.27792161  0.06082311    -0.19500
C1233       C  0.09820971  0.27486996  0.07519935    -0.20700
C1234       C  0.07806175  0.27510297  0.09574457    -0.19300
C1235       C  0.08519380  0.28086846  0.12321452     0.19900
C1236       C  0.11303039  0.28768681  0.13024790     0.02100
C1237       C  0.11901348  0.29349561  0.15830710    -0.14000
C1238       C  0.09866409  0.29085361  0.17867114    -0.11700
C1239       C  0.07158659  0.28279140  0.17181657     0.01600
C1240       C  0.06481131  0.27877289  0.14386850    -0.23900
H1241       H  0.20367677  0.29310905  0.09889096     0.09600
H1242       H  0.16980082  0.29840246  0.13456016     0.13200
H1243       H  0.13998857  0.27179879  0.04015456     0.11900
H1244       H  0.09210491  0.26968676  0.05424766     0.13100
H1245       H  0.05684692  0.27007505  0.09020751     0.12100
H1246       H  0.13937527  0.29941330  0.16533946     0.09200
H1247       H  0.10440186  0.29449027  0.20002868     0.12500
H1248       H  0.04390826  0.27264272  0.13823136     0.14300
C1249       C  0.03653065  0.32616619  0.31957084    -0.01200
C1250       C  0.04243146  0.31812144  0.34665986    -0.09200
C1251       C  0.04576947  0.33795045  0.36748954    -0.18000
C1252       C  0.04290078  0.36652212  0.36170402     0.04400
C1253       C  0.03831613  0.37442031  0.33372891     0.18600
C1254       C  0.03519427  0.35425578  0.31304127    -0.19500
C1255       C  0.03554271  0.40233260  0.32673017    -0.20700
C1256       C  0.03569391  0.42259682  0.34710089    -0.19300
C1257       C  0.03853396  0.41543199  0.37497291     0.19900
C1258       C  0.04295293  0.38741326  0.38270042     0.02100
C1259       C  0.04583346  0.38148106  0.41120208    -0.14000
C1260       C  0.04229302  0.40213304  0.43116526    -0.11700
C1261       C  0.03626937  0.42941654  0.42343840     0.01600
C1262       C  0.03559291  0.43604444  0.39522576    -0.23900
H1263       H  0.04334904  0.29637126  0.35193499     0.09600
H1264       H  0.04966072  0.33023065  0.38800816     0.13200
H1265       H  0.03043731  0.36035826  0.29198909     0.11900
H1266       H  0.03235921  0.40847524  0.30542116     0.13100
H1267       H  0.03261228  0.44395694  0.34107661     0.12100
H1268       H  0.04987493  0.36093701  0.41878368     0.09200
H1269       H  0.04341032  0.39647523  0.45279623     0.12500
H1270       H  0.03120586  0.45709573  0.38890190     0.14300
C1271       C  0.92105767  0.22697489  0.31620937    -0.01200
C1272       C  0.91706544  0.20186111  0.33015561    -0.09200
C1273       C  0.89547571  0.19894510  0.34949634    -0.18000
C1274       C  0.87727984  0.22121453  0.35538124     0.04400
C1275       C  0.88072895  0.24596994  0.33989530     0.18600
C1276       C  0.90217536  0.24848804  0.32067090    -0.19500
C1277       C  0.86334910  0.26865655  0.34420209    -0.20700
C1278       C  0.84320766  0.26788146  0.36448599    -0.19300
C1279       C  0.84002002  0.24443469  0.38101109     0.19900
C1280       C  0.85644756  0.22045029  0.37654264     0.02100
C1281       C  0.85181393  0.19743130  0.39414618    -0.14000
C1282       C  0.83280884  0.19898334  0.41620933    -0.11700
C1283       C  0.81792028  0.22340685  0.42113008     0.01600
C1284       C  0.82102851  0.24549797  0.40270708    -0.23900
H1285       H  0.93114539  0.18474990  0.32676507     0.09600
H1286       H  0.89385900  0.17933507  0.35996428     0.13200
H1287       H  0.90454734  0.26780207  0.30953214     0.11900
H1288       H  0.86579863  0.28744254  0.33223988     0.13100
H1289       H  0.83052117  0.28609757  0.36778095     0.12100
H1290       H  0.86312205  0.17833705  0.39178594     0.09200
H1291       H  0.83048892  0.18146102  0.42993110     0.12500
H1292       H  0.80909894  0.26427672  0.40574697     0.14300
C1293       C  0.83001360  0.81838996  0.03610446    -0.01200
C1294       C  0.82852987  0.83927740  0.05612205    -0.09200
C1295       C  0.85073995  0.85771813  0.05979463    -0.18000
C1296       C  0.87508920  0.85553466  0.04349707     0.04400
C1297       C  0.87693815  0.83295168  0.02469533     0.18600
C1298       C  0.85460319  0.81480605  0.02125134    -0.19500
C1299       C  0.90054444  0.82925086  0.00835566    -0.20700
C1300       C  0.92166418  0.84867107  0.00867833    -0.19300
C1301       C  0.91968655  0.87215034  0.02544164     0.19900
C1302       C  0.89702087  0.87552859  0.04396103     0.02100
C1303       C  0.89679150  0.89946360  0.06095046    -0.14000
C1304       C  0.91703523  0.92012193  0.05793999    -0.11700
C1305       C  0.93783190  0.91742782  0.03795420     0.01600
C1306       C  0.93963775  0.89295344  0.02265002    -0.23900
H1307       H  0.80973003  0.84211426  0.06804607     0.09600
H1308       H  0.84795224  0.87392731  0.07486613     0.13200
H1309       H  0.85601042  0.79820935  0.00618161     0.11900
H1310       H  0.90218804  0.81177782  0.99437649     0.13100
H1311       H  0.93918535  0.84582740  0.99492455     0.12100
H1312       H  0.88075916  0.90317784  0.07602819     0.09200
H1313       H  0.91556537  0.93883360  0.07019266     0.12500
H1314       H  0.95614303  0.89059775  0.00757300     0.14300
C1315       C  0.07426609  0.07091937  0.96829632    -0.01200
C1316       C  0.06569045  0.09824428  0.96375512    -0.09200
C1317       C  0.08511054  0.11929650  0.95933124    -0.18000
C1318       C  0.11394389  0.11371698  0.95969749     0.04400
C1319       C  0.12241353  0.08574525  0.96286096     0.18600
C1320       C  0.10267075  0.06476322  0.96677312    -0.19500
C1321       C  0.15062317  0.07894705  0.96337651    -0.20700
C1322       C  0.17072855  0.09950669  0.96237783    -0.19300
C1323       C  0.16312420  0.12736502  0.96068533     0.19900
C1324       C  0.13468107  0.13488571  0.95842851     0.02100
C1325       C  0.12828722  0.16334168  0.95628437    -0.14000
C1326       C  0.14902713  0.18344436  0.95849329    -0.11700
C1327       C  0.17683932  0.17595081  0.96260663     0.01600
C1328       C  0.18379571  0.14778879  0.96254053    -0.23900
H1329       H  0.04388114  0.10359270  0.96443433     0.09600
H1330       H  0.07691724  0.13983653  0.95658850     0.13200
H1331       H  0.10965163  0.04369806  0.96995976     0.11900
H1332       H  0.15719501  0.05762448  0.96551089     0.13100
H1333       H  0.19237782  0.09361175  0.96378103     0.12100
H1334       H  0.10737215  0.17077981  0.95375139     0.09200
H1335       H  0.14302903  0.20501971  0.95800294     0.12500
H1336       H  0.20524327  0.14164109  0.96536148     0.14300
C1337       C  0.04120930  0.91948023  0.93497306    -0.01200
C1338       C  0.05435162  0.92503227  0.90980937    -0.09200
C1339       C  0.05575608  0.90463343  0.88916781    -0.18000
C1340       C  0.04403860  0.87803648  0.89333405     0.04400
C1341       C  0.03276559  0.87213157  0.91983755     0.18600
C1342       C  0.03124195  0.89281885  0.94011062    -0.19500
C1343       C  0.02197004  0.84593660  0.92567466    -0.20700
C1344       C  0.02116704  0.82559170  0.90542784    -0.19300
C1345       C  0.03048766  0.83114479  0.87863232     0.19900
C1346       C  0.04217860  0.85737955  0.87210905     0.02100
C1347       C  0.05014475  0.86212033  0.84435984    -0.14000
C1348       C  0.04565062  0.84205687  0.82389326    -0.11700
C1349       C  0.03374461  0.81639739  0.83045600     0.01600
C1350       C  0.02698555  0.81089678  0.85806759    -0.23900
H1351       H  0.06211382  0.94561075  0.90550554     0.09600
H1352       H  0.06553147  0.91042394  0.86998839     0.13200
H1353       H  0.02115890  0.88851523  0.95969239     0.11900
H1354       H  0.01363100  0.84128320  0.94594875     0.13100
H1355       H  0.01227706  0.80564701  0.91052831     0.12100
H1356       H  0.05893285  0.88149408  0.83767351     0.09200
H1357       H  0.05110948  0.84684870  0.80271459     0.12500
H1358       H  0.01748871  0.79127524  0.86338078     0.14300
C1359       C  0.07959654  0.96699473  0.07718384    -0.01200
C1360       C  0.10750677  0.96442739  0.06955327    -0.09200
C1361       C  0.12826854  0.96232766  0.08953924    -0.18000
C1362       C  0.12179512  0.96311564  0.11804463     0.04400
C1363       C  0.09333536  0.96403894  0.12568691     0.18600
C1364       C  0.07261115  0.96570567  0.10532478    -0.19500
C1365       C  0.08576847  0.96459068  0.15361838    -0.20700
C1366       C  0.10591718  0.96593400  0.17415879    -0.19300
C1367       C  0.13410091  0.96670465  0.16724431     0.19900
C1368       C  0.14249692  0.96441859  0.13915571     0.02100
C1369       C  0.17123707  0.96487775  0.13335691    -0.14000
C1370       C  0.19062720  0.96944260  0.15427308    -0.11700
C1371       C  0.18217836  0.97338199  0.18170405     0.01600
C1372       C  0.15389793  0.97095838  0.18816638    -0.23900
H1373       H  0.11351258  0.96490431  0.04798488     0.09600
H1374       H  0.14921504  0.96100163  0.08194107     0.13200
H1375       H  0.05106528  0.96735767  0.11154185     0.11900
H1376       H  0.06409994  0.96493633  0.15959686     0.13100
H1377       H  0.09937796  0.96728142  0.19555468     0.12100
H1378       H  0.17943287  0.96257155  0.11278608     0.09200
H1379       H  0.21235662  0.97068305  0.14870557     0.12500
H1380       H  0.14708535  0.97358818  0.20936676     0.14300
C1381       C  0.93472859  0.02037776  0.92677015    -0.01200
C1382       C  0.93606383  0.00223883  0.90428122    -0.09200
C1383       C  0.91787305  0.00466501  0.88218945    -0.18000
C1384       C  0.89708129  0.02523249  0.88192268     0.04400
C1385       C  0.89601069  0.04411846  0.90447961     0.18600
C1386       C  0.91513346  0.04184245  0.92651842    -0.19500
C1387       C  0.87533018  0.06448455  0.90520042    -0.20700
C1388       C  0.85508734  0.06578894  0.88456175    -0.19300
C1389       C  0.85517226  0.04695460  0.86249372     0.19900
C1390       C  0.87670989  0.02690683  0.86057318     0.02100
C1391       C  0.87648264  0.00868785  0.83775847    -0.14000
C1392       C  0.85479929  0.00886831  0.81892616    -0.11700
C1393       C  0.83272165  0.02741290  0.82161262     0.01600
C1394       C  0.83340091  0.04722383  0.84284236    -0.23900
H1395       H  0.95131161  0.98577605  0.90381191     0.09600
H1396       H  0.92033720  0.98954279  0.86603004     0.13200
H1397       H  0.91400810  0.05594897  0.94392690     0.11900
H1398       H  0.87437771  0.07906429  0.92221232     0.13100
H1399       H  0.83895703  0.08130906  0.88615192     0.12100
H1400       H  0.89239772  0.99353482  0.83403382     0.09200
H1401       H  0.85494453  0.99375384  0.80233992     0.12500
H1402       H  0.81636027  0.06169187  0.84496025     0.14300
C1403       C  0.97272792  0.17439944  0.17911945    -0.01200
C1404       C  0.97045462  0.14679882  0.18766154    -0.09200
C1405       C  0.96794418  0.12539810  0.16832368    -0.18000
C1406       C  0.96791539  0.13090077  0.13958065     0.04400
C1407       C  0.96949936  0.15898475  0.13107458     0.18600
C1408       C  0.97164107  0.18028181  0.15073271    -0.19500
C1409       C  0.96978866  0.16568322  0.10294009    -0.20700
C1410       C  0.96954527  0.14502488  0.08295031    -0.19300
C1411       C  0.96888020  0.11713667  0.09057739     0.19900
C1412       C  0.96739042  0.10962419  0.11896584     0.02100
C1413       C  0.96633156  0.08112778  0.12541362    -0.14000
C1414       C  0.96855001  0.06104985  0.10472090    -0.11700
C1415       C  0.97160742  0.06856860  0.07688550     0.01600
C1416       C  0.97076564  0.09671307  0.06994723    -0.23900
H1417       H  0.97116049  0.14159406  0.20942295     0.09600
H1418       H  0.96671184  0.10473910  0.17653615     0.13200
H1419       H  0.97340702  0.20150743  0.14375309     0.11900
H1420       H  0.97085625  0.18706664  0.09633278     0.13100
H1421       H  0.97047511  0.15090776  0.06135641     0.12100
H1422       H  0.96448200  0.07365531  0.14630165     0.09200
H1423       H  0.96873655  0.03948232  0.11072936     0.12500
H1424       H  0.97288453  0.10287460  0.04850836     0.14300
loop_ 
_geom_bond_atom_site_label_1 
_geom_bond_atom_site_label_2 
_geom_bond_distance 
_geom_bond_site_symmetry_2 
_ccdc_geom_bond_type 
O1           C17   1.273   1_565  A
O1           Zn7   1.990       .  S
C2           O18   1.269       .  A
C2           O15   1.275       .  A
C2         C1337   1.474       .  S
O3           C16   1.274       .  A
O3          Cd10   2.090       .  S
O4           C22   1.277       .  A
O4          Cd13   2.074   1_554  S
O5           C19   1.277       .  A
O5           Cd9   2.084   1_455  S
O6           C17   1.276       .  A
O6           Cd9   2.092       .  S
Zn7          O18   1.989   1_655  S
Zn7          O20   1.989   1_556  S
Zn7          O12   1.912   1_656  S
O8           C19   1.276       .  A
O8          Cd13   2.069   1_545  S
Cd9          O11   2.083   1_556  S
Cd9          O12   2.016   1_646  S
Cd10         O14   2.070   1_565  S
Cd10         O23   2.068   1_655  S
Cd10         O12   2.010   1_655  S
O11          C21   1.278       .  A
O12         Cd13   2.010   1_554  S
Cd13         O15   2.100       .  S
O14          C21   1.276       .  A
C16          O20   1.271       .  A
C16        C1305   1.473       .  S
C17        C1381   1.476       .  S
C19        C1315   1.486       .  S
C21        C1415   1.486       .  S
C22          O23   1.276       .  A
C22        C1359   1.482       .  S
O24          C40   1.272       .  A
O24         Zn30   2.007   1_455  S
C25          O41   1.272       .  A
C25          O38   1.276       .  A
C25        C1217   1.475       .  S
O26          C39   1.277       .  A
O26         Cd33   2.098       .  S
O27          C45   1.276       .  A
O27         Cd36   2.067       .  S
O28          C42   1.277       .  A
O28         Cd32   2.075       .  S
O29          C40   1.274       .  A
O29         Cd32   2.082       .  S
Zn30         O41   2.003       .  S
Zn30         O43   1.997       .  S
Zn30         O35   1.919   1_655  S
O31          C42   1.276       .  A
O31         Cd36   2.073   1_455  S
Cd32         O34   2.071       .  S
Cd32         O35   2.004       .  S
Cd33         O37   2.083   1_655  S
Cd33         O46   2.083       .  S
Cd33         O35   2.016   1_655  S
O34          C44   1.276       .  A
O35         Cd36   2.007   1_455  S
Cd36         O38   2.094       .  S
O37          C44   1.278       .  A
C39          O43   1.274       .  A
C39        C1271   1.485       .  S
C40        C1249   1.467       .  S
C42        C1239   1.484       .  S
C44        C1195   1.486       .  S
C45          O46   1.277       .  A
C45        C1403   1.486       .  S
O47          C63   1.272       .  A
O47         Zn53   2.007       .  S
C48          O64   1.271       .  A
C48          O61   1.277       .  A
C48        C1107   1.475       .  S
O49          C62   1.278       .  A
O49         Cd56   2.111       .  S
O50          C68   1.278       .  A
O50         Cd59   2.079       .  S
O51          C65   1.277       .  A
O51         Cd55   2.073       .  S
O52          C63   1.276       .  A
O52         Cd55   2.095       .  S
Zn53         O64   2.002       .  S
Zn53         O66   1.974       .  S
Zn53         O58   1.915       .  S
O54          C65   1.277       .  A
O54         Cd59   2.080       .  S
Cd55         O57   2.072       .  S
Cd55         O58   2.004       .  S
Cd56         O60   2.089       .  S
Cd56         O69   2.084       .  S
Cd56         O58   2.025       .  S
O57          C67   1.276       .  A
O58         Cd59   2.010       .  S
Cd59         O61   2.103       .  S
O60          C67   1.278       .  A
C62          O66   1.271       .  A
C62        C1283   1.485       .  S
C63        C1117   1.475       .  S
C65        C1139   1.486       .  S
C67        C1073   1.489       .  S
C68          O69   1.279       .  A
C68        C1161   1.488       .  S
O70          C86   1.270   1_565  A
O70         Zn76   1.972       .  S
C71          O87   1.271       .  A
C71          O84   1.276       .  A
C71        C1063   1.476       .  S
O72          C85   1.275       .  A
O72         Cd79   2.094       .  S
O73          C91   1.278       .  A
O73         Cd82   2.090       .  S
O74          C88   1.277       .  A
O74         Cd78   2.073       .  S
O75          C86   1.277       .  A
O75         Cd78   2.109       .  S
Zn76         O87   1.981       .  S
Zn76         O89   1.988       .  S
Zn76         O81   1.908   1_565  S
O77          C88   1.277       .  A
O77         Cd82   2.071   1_545  S
Cd78         O80   2.084       .  S
Cd78         O81   2.017       .  S
Cd79         O83   2.073   1_565  S
Cd79         O92   2.065       .  S
Cd79         O81   2.008   1_565  S
O80          C90   1.278       .  A
O81         Cd82   2.016   1_545  S
Cd82         O84   2.097       .  S
O83          C90   1.277       .  A
C85          O89   1.269       .  A
C85         C997   1.469       .  S
C86        C1393   1.476       .  S
C88        C1007   1.483       .  S
C90        C1173   1.487       .  S
C91          O92   1.275       .  A
C91        C1041   1.487       .  S
O93         C109   1.274       .  A
O93         Zn99   2.008       .  S
C94         O110   1.273       .  A
C94         O107   1.276       .  A
C94         C897   1.469       .  S
O95         C108   1.275       .  A
O95        Cd102   2.092       .  S
O96         C114   1.277       .  A
O96        Cd105   2.081       .  S
O97         C111   1.278       .  A
O97        Cd101   2.083   1_545  S
O98         C109   1.276       .  A
O98        Cd101   2.097       .  S
Zn99        O110   1.993   1_565  S
Zn99        O112   2.016       .  S
Zn99        O104   1.916   1_565  S
O100        C111   1.278       .  A
O100       Cd105   2.088       .  S
Cd101       O103   2.070       .  S
Cd101       O104   2.009   1_565  S
Cd102       O106   2.068       .  S
Cd102       O115   2.075   1_565  S
Cd102       O104   2.006   1_565  S
O103        C113   1.276       .  A
O104       Cd105   2.015       .  S
Cd105       O107   2.089       .  S
O106        C113   1.276       .  A
C108        O112   1.273       .  A
C108        C953   1.476       .  S
C109        C975   1.482       .  S
C111        C931   1.491       .  S
C113       C1371   1.482       .  S
C114        O115   1.277       .  A
C114       C1183   1.487       .  S
O116        C132   1.270       .  A
O116       Zn122   1.984       .  S
C117        O133   1.271   1_655  A
C117        O130   1.279       .  A
C117        C875   1.483       .  S
O118        C131   1.275       .  A
O118       Cd125   2.087       .  S
O119        C137   1.279       .  A
O119       Cd128   2.096       .  S
O120        C134   1.276       .  A
O120       Cd124   2.066   1_655  S
O121        C132   1.275       .  A
O121       Cd124   2.104       .  S
Zn122       O133   1.984       .  S
Zn122       O135   2.001       .  S
Zn122       O127   1.913       .  S
O123        C134   1.280       .  A
O123       Cd128   2.096       .  S
Cd124       O126   2.071       .  S
Cd124       O127   2.014       .  S
Cd125       O129   2.078       .  S
Cd125       O138   2.074   1_455  S
Cd125       O127   2.008       .  S
O126        C136   1.276       .  A
O127       Cd128   2.023   1_455  S
Cd128       O130   2.114       .  S
O129        C136   1.277       .  A
C131        O135   1.273       .  A
C131        C809   1.476       .  S
C132        C865   1.479       .  S
C134        C843   1.487       .  S
C136       C1261   1.485       .  S
C137        O138   1.277       .  A
C137       C1095   1.490       .  S
O139        C155   1.271       .  A
O139       Zn145   1.994       .  S
C140        O156   1.271       .  A
C140        O153   1.274       .  A
C140        C765   1.474       .  S
O141        C154   1.275       .  A
O141       Cd148   2.089       .  S
O142        C160   1.277       .  A
O142       Cd151   2.076       .  S
O143        C157   1.276       .  A
O143       Cd147   2.066       .  S
O144        C155   1.274       .  A
O144       Cd147   2.083       .  S
Zn145       O156   1.989       .  S
Zn145       O158   1.982       .  S
Zn145       O150   1.907       .  S
O146        C157   1.276       .  A
O146       Cd151   2.067       .  S
Cd147       O149   2.065       .  S
Cd147       O150   2.000       .  S
Cd148       O152   2.082       .  S
Cd148       O161   2.070       .  S
Cd148       O150   2.010       .  S
O149        C159   1.275       .  A
O150       Cd151   2.010       .  S
Cd151       O153   2.090       .  S
O152        C159   1.277       .  A
C154        O158   1.271       .  A
C154        C721   1.473       .  S
C155        C799   1.469       .  S
C157        C743   1.479       .  S
C159       C1151   1.485       .  S
C160        O161   1.277       .  A
C160       C1019   1.484       .  S
O162        C178   1.270       .  A
O162       Zn168   2.007       .  S
C163        O179   1.273       .  A
C163        O176   1.276       .  A
C163       C1051   1.475       .  S
O164        C177   1.275       .  A
O164       Cd171   2.086       .  S
O165        C183   1.278       .  A
O165       Cd174   2.089   1_554  S
O166        C180   1.277       .  A
O166       Cd170   2.070       .  S
O167        C178   1.274       .  A
O167       Cd170   2.093       .  S
Zn168       O179   1.988       .  S
Zn168       O181   2.003   1_556  S
Zn168       O173   1.918   1_556  S
O169        C180   1.277       .  A
O169       Cd174   2.077       .  S
Cd170       O172   2.077   1_556  S
Cd170       O173   2.013   1_556  S
Cd171       O175   2.062       .  S
Cd171       O184   2.077       .  S
Cd171       O173   2.007       .  S
O172        C182   1.276       .  A
O173       Cd174   2.018   1_554  S
Cd174       O176   2.094       .  S
O175        C182   1.275       .  A
C177        O181   1.274       .  A
C177       C1293   1.474       .  S
C178        C699   1.473       .  S
C180        C645   1.483       .  S
C182        C677   1.476       .  S
C183        O184   1.276       .  A
C183        C667   1.489       .  S
O185        C201   1.272       .  A
O185       Zn191   1.990       .  S
C186        O202   1.272       .  A
C186        O199   1.275       .  A
C186        C589   1.470       .  S
O187        C200   1.277       .  A
O187       Cd194   2.099       .  S
O188        C206   1.275       .  A
O188       Cd197   2.068   1_554  S
O189        C203   1.277       .  A
O189       Cd193   2.078       .  S
O190        C201   1.276       .  A
O190       Cd193   2.095       .  S
Zn191       O202   2.010       .  S
Zn191       O204   1.999       .  S
Zn191       O196   1.920       .  S
O192        C203   1.276       .  A
O192       Cd197   2.073       .  S
Cd193       O195   2.086   1_556  S
Cd193       O196   2.012       .  S
Cd194       O198   2.080       .  S
Cd194       O207   2.080       .  S
Cd194       O196   2.012   1_554  S
O195        C205   1.278       .  A
O196       Cd197   2.003       .  S
Cd197       O199   2.085       .  S
O198        C205   1.277       .  A
C200        O204   1.272   1_554  A
C200        C623   1.479       .  S
C201        C777   1.474       .  S
C203       C1327   1.486       .  S
C205        C919   1.490       .  S
C206        O207   1.277       .  A
C206       C1227   1.485       .  S
O208        C224   1.271       .  A
O208       Zn214   2.003       .  S
C209        O225   1.274       .  A
C209        O222   1.275       .  A
C209        C689   1.470       .  S
O210        C223   1.278       .  A
O210       Cd217   2.104       .  S
O211        C229   1.275       .  A
O211       Cd220   2.064       .  S
O212        C226   1.275       .  A
O212       Cd216   2.073       .  S
O213        C224   1.276       .  A
O213       Cd216   2.098       .  S
Zn214       O225   2.011       .  S
Zn214       O227   2.012       .  S
Zn214       O219   1.933       .  S
O215        C226   1.276       .  A
O215       Cd220   2.078       .  S
Cd216       O218   2.072       .  S
Cd216       O219   2.010       .  S
Cd217       O221   2.097       .  S
Cd217       O230   2.097       .  S
Cd217       O219   2.021       .  S
O218        C228   1.278       .  A
O219       Cd220   2.007       .  S
Cd220       O222   2.079       .  S
O221        C228   1.280       .  A
C223        O227   1.273       .  A
C223        C557   1.475       .  S
C224        C567   1.475       .  S
C226        C831   1.486       .  S
C228       C1129   1.488       .  S
C229        O230   1.278       .  A
C229       C1205   1.486       .  S
O231        C247   1.271       .  A
O231       Zn237   2.004       .  S
C232        O248   1.272   1_545  A
C232        O245   1.274       .  A
C232        C909   1.471       .  S
O233        C246   1.277       .  A
O233       Cd240   2.096       .  S
O234        C252   1.277       .  A
O234       Cd243   2.078       .  S
O235        C249   1.275       .  A
O235       Cd239   2.067   1_545  S
O236        C247   1.274       .  A
O236       Cd239   2.086       .  S
Zn237       O248   1.991       .  S
Zn237       O250   1.989       .  S
Zn237       O242   1.912       .  S
O238        C249   1.275       .  A
O238       Cd243   2.061       .  S
Cd239       O241   2.065       .  S
Cd239       O242   2.001       .  S
Cd240       O244   2.087       .  S
Cd240       O253   2.084   1_565  S
Cd240       O242   2.012       .  S
O241        C251   1.275       .  A
O242       Cd243   2.005   1_565  S
Cd243       O245   2.089       .  S
O244        C251   1.278       .  A
C246        O250   1.272       .  A
C246        C513   1.475       .  S
C247        C523   1.469       .  S
C249        C755   1.479       .  S
C251       C1029   1.486       .  S
C252        O253   1.278       .  A
C252       C1085   1.489       .  S
O254        C270   1.270   1_455  A
O254       Zn260   1.985       .  S
C255        O271   1.269       .  A
C255        O268   1.275       .  A
C255        C469   1.477       .  S
O256        C269   1.278       .  A
O256       Cd263   2.111       .  S
O257        C275   1.276       .  A
O257       Cd266   2.077       .  S
O258        C272   1.278       .  A
O258       Cd262   2.082       .  S
O259        C270   1.278       .  A
O259       Cd262   2.115       .  S
Zn260       O271   1.976       .  S
Zn260       O273   1.965       .  S
Zn260       O265   1.902   1_455  S
O261        C272   1.277       .  A
O261       Cd266   2.073   1_655  S
Cd262       O264   2.082       .  S
Cd262       O265   2.013       .  S
Cd263       O267   2.089   1_455  S
Cd263       O276   2.087       .  S
Cd263       O265   2.019   1_455  S
O264        C274   1.279       .  A
O265       Cd266   2.012   1_655  S
Cd266       O268   2.098       .  S
O267        C274   1.279       .  A
C269        O273   1.269       .  A
C269        C491   1.479       .  S
C270        C887   1.484       .  S
C272        C985   1.485       .  S
C274        C711   1.490       .  S
C275        O276   1.279       .  A
C275       C1349   1.486       .  S
O277        C293   1.272       .  A
O277       Zn283   1.996       .  S
C278        O294   1.269       .  A
C278        O291   1.276       .  A
C278        C447   1.471       .  S
O279        C292   1.277       .  A
O279       Cd286   2.091       .  S
O280        C298   1.276       .  A
O280       Cd289   2.071       .  S
O281        C295   1.277       .  A
O281       Cd285   2.079       .  S
O282        C293   1.277       .  A
O282       Cd285   2.104       .  S
Zn283       O294   1.990       .  S
Zn283       O296   2.002       .  S
Zn283       O288   1.922       .  S
O284        C295   1.277       .  A
O284       Cd289   2.070       .  S
Cd285       O287   2.080       .  S
Cd285       O288   2.018       .  S
Cd286       O290   2.082       .  S
Cd286       O299   2.092       .  S
Cd286       O288   2.017       .  S
O287        C297   1.277       .  A
O288       Cd289   2.007       .  S
Cd289       O291   2.101       .  S
O290        C297   1.278       .  A
C292        O296   1.274       .  A
C292        C501   1.475       .  S
C293        C963   1.480       .  S
C295        C413   1.485       .  S
C297        C655   1.488       .  S
C298        O299   1.277       .  A
C298        C579   1.488       .  S
O300        C316   1.272       .  A
O300       Zn306   1.991       .  S
C301        O317   1.272       .  A
C301        O314   1.277       .  A
C301        C853   1.480       .  S
O302        C315   1.277       .  A
O302       Cd309   2.106       .  S
O303        C321   1.278       .  A
O303       Cd312   2.076       .  S
O304        C318   1.276       .  A
O304       Cd308   2.068       .  S
O305        C316   1.275       .  A
O305       Cd308   2.085       .  S
Zn306       O317   1.996       .  S
Zn306       O319   1.995       .  S
Zn306       O311   1.912       .  S
O307        C318   1.278       .  A
O307       Cd312   2.096       .  S
Cd308       O310   2.060       .  S
Cd308       O311   2.001       .  S
Cd309       O313   2.095       .  S
Cd309       O322   2.082       .  S
Cd309       O311   2.020       .  S
O310        C320   1.275       .  A
O311       Cd312   2.015       .  S
Cd312       O314   2.103       .  S
O313        C320   1.279       .  A
C315        O319   1.272       .  A
C315        C391   1.484       .  S
C316        C457   1.475       .  S
C318        C941   1.486       .  S
C320        C535   1.487       .  S
C321        O322   1.278       .  A
C321        C435   1.485       .  S
O323        C339   1.268       .  A
O323       Zn329   1.971       .  S
C324        O340   1.272       .  A
C324        O337   1.277       .  A
C324        C479   1.479       .  S
O325        C338   1.278       .  A
O325       Cd332   2.114       .  S
O326        C344   1.279       .  A
O326       Cd335   2.080       .  S
O327        C341   1.274       .  A
O327       Cd331   2.055       .  S
O328        C339   1.273       .  A
O328       Cd331   2.093       .  S
Zn329       O340   1.983       .  S
Zn329       O342   1.979       .  S
Zn329       O334   1.903       .  S
O330        C341   1.278       .  A
O330       Cd335   2.094       .  S
Cd331       O333   2.055       .  S
Cd331       O334   2.006       .  S
Cd332       O336   2.093       .  S
Cd332       O345   2.079       .  S
Cd332       O334   2.020       .  S
O333        C343   1.275       .  A
O334       Cd335   2.015       .  S
Cd335       O337   2.099       .  S
O336        C343   1.279       .  A
C338        O342   1.270       .  A
C338        C403   1.481       .  S
C339        C821   1.471       .  S
C341        C601   1.485       .  S
C343        C787   1.482       .  S
C344        O345   1.278       .  A
C344        C369   1.487       .  S
O346        C362   1.272       .  A
O346       Zn352   1.986       .  S
C347        O363   1.271   1_554  A
C347        O360   1.277       .  A
C347        C611   1.479       .  S
O348        C361   1.275       .  A
O348       Cd355   2.098       .  S
O349        C367   1.278       .  A
O349       Cd358   2.075       .  S
O350        C364   1.278       .  A
O350       Cd354   2.087   1_554  S
O351        C362   1.276       .  A
O351       Cd354   2.095       .  S
Zn352       O363   1.988       .  S
Zn352       O365   1.998       .  S
Zn352       O357   1.918       .  S
O353        C364   1.278       .  A
O353       Cd358   2.084       .  S
Cd354       O356   2.083       .  S
Cd354       O357   2.018       .  S
Cd355       O359   2.061       .  S
Cd355       O368   2.076   1_556  S
Cd355       O357   2.014       .  S
O356        C366   1.278       .  A
O357       Cd358   2.010   1_556  S
Cd358       O360   2.103       .  S
O359        C366   1.275       .  A
C361        O365   1.269       .  A
C361        C381   1.471       .  S
C362        C733   1.476       .  S
C364        C545   1.492       .  S
C366        C633   1.484       .  S
C367        O368   1.276       .  A
C367        C425   1.486       .  S
C369        C370   1.403       .  A
C369        C374   1.403       .  A
C370        C371   1.399       .  A
C370        H383   1.083       .  S
C371        C372   1.415       .  A
C371        H384   1.077       .  S
C372        C378   1.433       .  A
C372        C373   1.423       .  A
C373        C375   1.399       .  A
C373        C374   1.406       .  A
C374        H385   1.084       .  S
C375        C376   1.389       .  A
C375        H386   1.084       .  S
C376        C377   1.399       .  A
C376        H387   1.084       .  S
C377        C378   1.423       .  A
C377        C382   1.405       .  A
C378        C379   1.418       .  A
C379        C380   1.401       .  A
C379        H388   1.077       .  S
C380        C381   1.398       .  A
C380        H389   1.083       .  S
C381        C382   1.398       .  A
C382        H390   1.085       .  S
C391        C392   1.402       .  A
C391        C396   1.400       .  A
C392        C393   1.407       .  A
C392        H405   1.083       .  S
C393        C394   1.418       .  A
C393        H406   1.078       .  S
C394        C400   1.436       .  A
C394        C395   1.423       .  A
C395        C397   1.397       .  A
C395        C396   1.400       .  A
C396        H407   1.085       .  S
C397        C398   1.384       .  A
C397        H408   1.084       .  S
C398        C399   1.398       .  A
C398        H409   1.084       .  S
C399        C400   1.422       .  A
C399        C404   1.398       .  A
C400        C401   1.420       .  A
C401        C402   1.408       .  A
C401        H410   1.078       .  S
C402        C403   1.401       .  A
C402        H411   1.083       .  S
C403        C404   1.400       .  A
C404        H412   1.086       .  S
C413        C414   1.401       .  A
C413        C418   1.405       .  A
C414        C415   1.394       .  A
C414        H427   1.083       .  S
C415        C416   1.414       .  A
C415        H428   1.077       .  S
C416        C422   1.430       .  A
C416        C417   1.422       .  A
C417        C419   1.400       .  A
C417        C418   1.408       .  A
C418        H429   1.084       .  S
C419        C420   1.392       .  A
C419        H430   1.084       .  S
C420        C421   1.401       .  A
C420        H431   1.084       .  S
C421        C422   1.422       .  A
C421        C426   1.408       .  A
C422        C423   1.414       .  A
C423        C424   1.394       .  A
C423        H432   1.077       .  S
C424        C425   1.401       .  A
C424        H433   1.083       .  S
C425        C426   1.405       .  A
C426        H434   1.084       .  S
C435        C436   1.402       .  A
C435        C440   1.402       .  A
C436        C437   1.399       .  A
C436        H449   1.083       .  S
C437        C438   1.415       .  A
C437        H450   1.078       .  S
C438        C444   1.432       .  A
C438        C439   1.423       .  A
C439        C441   1.399       .  A
C439        C440   1.404       .  A
C440        H451   1.084       .  S
C441        C442   1.389       .  A
C441        H452   1.084       .  S
C442        C443   1.399       .  A
C442        H453   1.084       .  S
C443        C444   1.422       .  A
C443        C448   1.404       .  A
C444        C445   1.418       .  A
C445        C446   1.401       .  A
C445        H454   1.078       .  S
C446        C447   1.398       .  A
C446        H455   1.083       .  S
C447        C448   1.399       .  A
C448        H456   1.085       .  S
C457        C458   1.400       .  A
C457        C462   1.399       .  A
C458        C459   1.402       .  A
C458        H471   1.083       .  S
C459        C460   1.417       .  A
C459        H472   1.078       .  S
C460        C466   1.431       .  A
C460        C461   1.423       .  A
C461        C463   1.397       .  A
C461        C462   1.398       .  A
C462        H473   1.085       .  S
C463        C464   1.385       .  A
C463        H474   1.084       .  S
C464        C465   1.398       .  A
C464        H475   1.084       .  S
C465        C466   1.422       .  A
C465        C470   1.398       .  A
C466        C467   1.418       .  A
C467        C468   1.403       .  A
C467        H476   1.078       .  S
C468        C469   1.399       .  A
C468        H477   1.083       .  S
C469        C470   1.400       .  A
C470        H478   1.085       .  S
C479        C480   1.401       .  A
C479        C484   1.399       .  A
C480        C481   1.405       .  A
C480        H493   1.083       .  S
C481        C482   1.418       .  A
C481        H494   1.078       .  S
C482        C488   1.433       .  A
C482        C483   1.423       .  A
C483        C485   1.397       .  A
C483        C484   1.397       .  A
C484        H495   1.085       .  S
C485        C486   1.383       .  A
C485        H496   1.084       .  S
C486        C487   1.397       .  A
C486        H497   1.084       .  S
C487        C488   1.422       .  A
C487        C492   1.396       .  A
C488        C489   1.419       .  A
C489        C490   1.406       .  A
C489        H498   1.078       .  S
C490        C491   1.400       .  A
C490        H499   1.083       .  S
C491        C492   1.400       .  A
C492        H500   1.085       .  S
C501        C502   1.399       .  A
C501        C506   1.399       .  A
C502        C503   1.402       .  A
C502        H515   1.083       .  S
C503        C504   1.417       .  A
C503        H516   1.078       .  S
C504        C510   1.432       .  A
C504        C505   1.423       .  A
C505        C507   1.398       .  A
C505        C506   1.401       .  A
C506        H517   1.085       .  S
C507        C508   1.386       .  A
C507        H518   1.084       .  S
C508        C509   1.398       .  A
C508        H519   1.084       .  S
C509        C510   1.422       .  A
C509        C514   1.399       .  A
C510        C511   1.418       .  A
C511        C512   1.403       .  A
C511        H520   1.078       .  S
C512        C513   1.399       .  A
C512        H521   1.083       .  S
C513        C514   1.399       .  A
C514        H522   1.085       .  S
C523        C524   1.397       .  A
C523        C528   1.399       .  A
C524        C525   1.395       .  A
C524        H537   1.084       .  S
C525        C526   1.416       .  A
C525        H538   1.077       .  S
C526        C532   1.429       .  A
C526        C527   1.423       .  A
C527        C529   1.400       .  A
C527        C528   1.408       .  A
C528        H539   1.085       .  S
C529        C530   1.393       .  A
C529        H540   1.084       .  S
C530        C531   1.400       .  A
C530        H541   1.084       .  S
C531        C532   1.422       .  A
C531        C536   1.410       .  A
C532        C533   1.412       .  A
C533        C534   1.394       .  A
C533        H542   1.077       .  S
C534        C535   1.403       .  A
C534        H543   1.083       .  S
C535        C536   1.404       .  A
C536        H544   1.084       .  S
C545        C546   1.404       .  A
C545        C550   1.404       .  A
C546        C547   1.401       .  A
C546        H559   1.083       .  S
C547        C548   1.416       .  A
C547        H560   1.077       .  S
C548        C554   1.435       .  A
C548        C549   1.423       .  A
C549        C551   1.400       .  A
C549        C550   1.407       .  A
C550        H561   1.084       .  S
C551        C552   1.390       .  A
C551        H562   1.084       .  S
C552        C553   1.399       .  A
C552        H563   1.084       .  S
C553        C554   1.423       .  A
C553        C558   1.407       .  A
C554        C555   1.418       .  A
C555        C556   1.402       .  A
C555        H564   1.078       .  S
C556        C557   1.398       .  A
C556        H565   1.083       .  S
C557        C558   1.399       .  A
C558        H566   1.085       .  S
C567        C568   1.400       .  A
C567        C572   1.397       .  A
C568        C569   1.404       .  A
C568        H581   1.083       .  S
C569        C570   1.418       .  A
C569        H582   1.078       .  S
C570        C576   1.435       .  A
C570        C571   1.423       .  A
C571        C573   1.397       .  A
C571        C572   1.402       .  A
C572        H583   1.085       .  S
C573        C574   1.386       .  A
C573        H584   1.084       .  S
C574        C575   1.398       .  A
C574        H585   1.084       .  S
C575        C576   1.422       .  A
C575        C580   1.403       .  A
C576        C577   1.417       .  A
C577        C578   1.404       .  A
C577        H586   1.078       .  S
C578        C579   1.403       .  A
C578        H587   1.083       .  S
C579        C580   1.402       .  A
C580        H588   1.084       .  S
C589        C590   1.398       .  A
C589        C594   1.398       .  A
C590        C591   1.399       .  A
C590        H603   1.084       .  S
C591        C592   1.416       .  A
C591        H604   1.077       .  S
C592        C598   1.431       .  A
C592        C593   1.424       .  A
C593        C595   1.398       .  A
C593        C594   1.404       .  A
C594        H605   1.085       .  S
C595        C596   1.388       .  A
C595        H606   1.084       .  S
C596        C597   1.400       .  A
C596        H607   1.084       .  S
C597        C598   1.421       .  A
C597        C602   1.402       .  A
C598        C599   1.417       .  A
C599        C600   1.401       .  A
C599        H608   1.077       .  S
C600        C601   1.401       .  A
C600        H609   1.083       .  S
C601        C602   1.403       .  A
C602        H610   1.084       .  S
C611        C612   1.400       .  A
C611        C616   1.399       .  A
C612        C613   1.405       .  A
C612        H625   1.083       .  S
C613        C614   1.419       .  A
C613        H626   1.078       .  S
C614        C620   1.435       .  A
C614        C615   1.422       .  A
C615        C617   1.398   1_554  A
C615        C616   1.399       .  A
C616        H627   1.085   1_554  S
C617        C618   1.385       .  A
C617        H628   1.084       .  S
C618        C619   1.398   1_556  A
C618        H629   1.084       .  S
C619        C620   1.423       .  A
C619        C624   1.400       .  A
C620        C621   1.418       .  A
C621        C622   1.405       .  A
C621        H630   1.078       .  S
C622        C623   1.401       .  A
C622        H631   1.083       .  S
C623        C624   1.399       .  A
C624        H632   1.085   1_554  S
C633        C634   1.401       .  A
C633        C638   1.404       .  A
C634        C635   1.397       .  A
C634        H647   1.083       .  S
C635        C636   1.415       .  A
C635        H648   1.077       .  S
C636        C642   1.429       .  A
C636        C637   1.421       .  A
C637        C639   1.400       .  A
C637        C638   1.404       .  A
C638        H649   1.084       .  S
C639        C640   1.390       .  A
C639        H650   1.084       .  S
C640        C641   1.399       .  A
C640        H651   1.084       .  S
C641        C642   1.423       .  A
C641        C646   1.406       .  A
C642        C643   1.413       .  A
C643        C644   1.395       .  A
C643        H652   1.077       .  S
C644        C645   1.401       .  A
C644        H653   1.083       .  S
C645        C646   1.403       .  A
C646        H654   1.084       .  S
C655        C656   1.403       .  A
C655        C660   1.404       .  A
C656        C657   1.399       .  A
C656        H669   1.083       .  S
C657        C658   1.415       .  A
C657        H670   1.077       .  S
C658        C664   1.434       .  A
C658        C659   1.423       .  A
C659        C661   1.400       .  A
C659        C660   1.407       .  A
C660        H671   1.084       .  S
C661        C662   1.390       .  A
C661        H672   1.084       .  S
C662        C663   1.400       .  A
C662        H673   1.084       .  S
C663        C664   1.422       .  A
C663        C668   1.407       .  A
C664        C665   1.416       .  A
C665        C666   1.400       .  A
C665        H674   1.077       .  S
C666        C667   1.402       .  A
C666        H675   1.083       .  S
C667        C668   1.405       .  A
C668        H676   1.084       .  S
C677        C678   1.400       .  A
C677        C682   1.400       .  A
C678        C679   1.400       .  A
C678        H691   1.083       .  S
C679        C680   1.416       .  A
C679        H692   1.078       .  S
C680        C686   1.429       .  A
C680        C681   1.422       .  A
C681        C683   1.399       .  A
C681        C682   1.400       .  A
C682        H693   1.085       .  S
C683        C684   1.387       .  A
C683        H694   1.084       .  S
C684        C685   1.398       .  A
C684        H695   1.084       .  S
C685        C686   1.423       .  A
C685        C690   1.401       .  A
C686        C687   1.416       .  A
C687        C688   1.400       .  A
C687        H696   1.078       .  S
C688        C689   1.398       .  A
C688        H697   1.083       .  S
C689        C690   1.398       .  A
C690        H698   1.085       .  S
C699        C700   1.398       .  A
C699        C704   1.399       .  A
C700        C701   1.397       .  A
C700        H713   1.084       .  S
C701        C702   1.416       .  A
C701        H714   1.077       .  S
C702        C708   1.433       .  A
C702        C703   1.424       .  A
C703        C705   1.400       .  A
C703        C704   1.410       .  A
C704        H715   1.085       .  S
C705        C706   1.392       .  A
C705        H716   1.084       .  S
C706        C707   1.401       .  A
C706        H717   1.084       .  S
C707        C708   1.422       .  A
C707        C712   1.410       .  A
C708        C709   1.414       .  A
C709        C710   1.397       .  A
C709        H718   1.077       .  S
C710        C711   1.403       .  A
C710        H719   1.083       .  S
C711        C712   1.405       .  A
C712        H720   1.084       .  S
C721        C722   1.400       .  A
C721        C726   1.397       .  A
C722        C723   1.404       .  A
C722        H735   1.083       .  S
C723        C724   1.419       .  A
C723        H736   1.078       .  S
C724        C730   1.432       .  A
C724        C725   1.423       .  A
C725        C727   1.397       .  A
C725        C726   1.395       .  A
C726        H737   1.086       .  S
C727        C728   1.383       .  A
C727        H738   1.084       .  S
C728        C729   1.397       .  A
C728        H739   1.084       .  S
C729        C730   1.422       .  A
C729        C734   1.396       .  A
C730        C731   1.419       .  A
C731        C732   1.405       .  A
C731        H740   1.078       .  S
C732        C733   1.400       .  A
C732        H741   1.083       .  S
C733        C734   1.398       .  A
C734        H742   1.085       .  S
C743        C744   1.401       .  A
C743        C748   1.401       .  A
C744        C745   1.396       .  A
C744        H757   1.083       .  S
C745        C746   1.415       .  A
C745        H758   1.077       .  S
C746        C752   1.428       .  A
C746        C747   1.422       .  A
C747        C749   1.398       .  A
C747        C748   1.401       .  A
C748        H759   1.084       .  S
C749        C750   1.387       .  A
C749        H760   1.084       .  S
C750        C751   1.398       .  A
C750        H761   1.084       .  S
C751        C752   1.422       .  A
C751        C756   1.401       .  A
C752        C753   1.415       .  A
C753        C754   1.396       .  A
C753        H762   1.077       .  S
C754        C755   1.401       .  A
C754        H763   1.083       .  S
C755        C756   1.401       .  A
C756        H764   1.084       .  S
C765        C766   1.400       .  A
C765        C770   1.397       .  A
C766        C767   1.404       .  A
C766        H779   1.083       .  S
C767        C768   1.418       .  A
C767        H780   1.078       .  S
C768        C774   1.432       .  A
C768        C769   1.423       .  A
C769        C771   1.397       .  A
C769        C770   1.397       .  A
C770        H781   1.085       .  S
C771        C772   1.383       .  A
C771        H782   1.084       .  S
C772        C773   1.397       .  A
C772        H783   1.084       .  S
C773        C774   1.423       .  A
C773        C778   1.397       .  A
C774        C775   1.419       .  A
C775        C776   1.404       .  A
C775        H784   1.078       .  S
C776        C777   1.400       .  A
C776        H785   1.083       .  S
C777        C778   1.397       .  A
C778        H786   1.086       .  S
C787        C788   1.401       .  A
C787        C792   1.402       .  A
C788        C789   1.401       .  A
C788        H801   1.083       .  S
C789        C790   1.417       .  A
C789        H802   1.078       .  S
C790        C796   1.431       .  A
C790        C791   1.421       .  A
C791        C793   1.399       .  A
C791        C792   1.400       .  A
C792        H803   1.085       .  S
C793        C794   1.387       .  A
C793        H804   1.084       .  S
C794        C795   1.398       .  A
C794        H805   1.084       .  S
C795        C796   1.423       .  A
C795        C800   1.401       .  A
C796        C797   1.417       .  A
C797        C798   1.400       .  A
C797        H806   1.078       .  S
C798        C799   1.398       .  A
C798        H807   1.083       .  S
C799        C800   1.397       .  A
C800        H808   1.085       .  S
C809        C810   1.400       .  A
C809        C814   1.398       .  A
C810        C811   1.403       .  A
C810        H823   1.083       .  S
C811        C812   1.417       .  A
C811        H824   1.078       .  S
C812        C818   1.432       .  A
C812        C813   1.423       .  A
C813        C815   1.397       .  A
C813        C814   1.399       .  A
C814        H825   1.085       .  S
C815        C816   1.384       .  A
C815        H826   1.084       .  S
C816        C817   1.397       .  A
C816        H827   1.084       .  S
C817        C818   1.422       .  A
C817        C822   1.395       .  A
C818        C819   1.420       .  A
C819        C820   1.405       .  A
C819        H828   1.078       .  S
C820        C821   1.399       .  A
C820        H829   1.083       .  S
C821        C822   1.397       .  A
C822        H830   1.086       .  S
C831        C832   1.403       .  A
C831        C836   1.403       .  A
C832        C833   1.399       .  A
C832        H845   1.083       .  S
C833        C834   1.415       .  A
C833        H846   1.077       .  S
C834        C840   1.433       .  A
C834        C835   1.423       .  A
C835        C837   1.399       .  A
C835        C836   1.406       .  A
C836        H847   1.084       .  S
C837        C838   1.389       .  A
C837        H848   1.084       .  S
C838        C839   1.399       .  A
C838        H849   1.084       .  S
C839        C840   1.422       .  A
C839        C844   1.404       .  A
C840        C841   1.417       .  A
C841        C842   1.401       .  A
C841        H850   1.077       .  S
C842        C843   1.402       .  A
C842        H851   1.083       .  S
C843        C844   1.404       .  A
C844        H852   1.084       .  S
C853        C854   1.401       .  A
C853        C858   1.399       .  A
C854        C855   1.406       .  A
C854        H867   1.083       .  S
C855        C856   1.418       .  A
C855        H868   1.078       .  S
C856        C862   1.435       .  A
C856        C857   1.423       .  A
C857        C859   1.397       .  A
C857        C858   1.400       .  A
C858        H869   1.085       .  S
C859        C860   1.384       .  A
C859        H870   1.084       .  S
C860        C861   1.398       .  A
C860        H871   1.084       .  S
C861        C862   1.422       .  A
C861        C866   1.398       .  A
C862        C863   1.420       .  A
C863        C864   1.407       .  A
C863        H872   1.078       .  S
C864        C865   1.400       .  A
C864        H873   1.083       .  S
C865        C866   1.399       .  A
C866        H874   1.086       .  S
C875        C876   1.401       .  A
C875        C880   1.401       .  A
C876        C877   1.408       .  A
C876        H889   1.083       .  S
C877        C878   1.420       .  A
C877        H890   1.078       .  S
C878        C884   1.436       .  A
C878        C879   1.422       .  A
C879        C881   1.398   1_655  A
C879        C880   1.399       .  A
C880        H891   1.085   1_655  S
C881        C882   1.385       .  A
C881        H892   1.084       .  S
C882        C883   1.398   1_455  A
C882        H893   1.084       .  S
C883        C884   1.423       .  A
C883        C888   1.400       .  A
C884        C885   1.419       .  A
C885        C886   1.407       .  A
C885        H894   1.078       .  S
C886        C887   1.401       .  A
C886        H895   1.083       .  S
C887        C888   1.401       .  A
C888        H896   1.085   1_655  S
C897        C898   1.396       .  A
C897        C902   1.402       .  A
C898        C899   1.389       .  A
C898        H911   1.084       .  S
C899        C900   1.413       .  A
C899        H912   1.077       .  S
C900        C906   1.425       .  A
C900        C901   1.422       .  A
C901        C903   1.401       .  A
C901        C902   1.410       .  A
C902        H913   1.084       .  S
C903        C904   1.395       .  A
C903        H914   1.084       .  S
C904        C905   1.402       .  A
C904        H915   1.084       .  S
C905        C906   1.423       .  A
C905        C910   1.411       .  A
C906        C907   1.413       .  A
C907        C908   1.388       .  A
C907        H916   1.076       .  S
C908        C909   1.396       .  A
C908        H917   1.084       .  S
C909        C910   1.402       .  A
C910        H918   1.084       .  S
C919        C920   1.404       .  A
C919        C924   1.404       .  A
C920        C921   1.400       .  A
C920        H933   1.084       .  S
C921        C922   1.416       .  A
C921        H934   1.073       .  S
C922        C928   1.434       .  A
C922        C923   1.422       .  A
C923        C925   1.399       .  A
C923        C924   1.407       .  A
C924        H935   1.083       .  S
C925        C926   1.390       .  A
C925        H936   1.083       .  S
C926        C927   1.400       .  A
C926        H937   1.083       .  S
C927        C928   1.422       .  A
C927        C932   1.407       .  A
C928        C929   1.416       .  A
C929        C930   1.401       .  A
C929        H938   1.073       .  S
C930        C931   1.403       .  A
C930        H939   1.084       .  S
C931        C932   1.404       .  A
C932        H940   1.083       .  S
C941        C942   1.402       .  A
C941        C946   1.404       .  A
C942        C943   1.395       .  A
C942        H955   1.083       .  S
C943        C944   1.413       .  A
C943        H956   1.077       .  S
C944        C950   1.431       .  A
C944        C945   1.422       .  A
C945        C947   1.401       .  A
C945        C946   1.411       .  A
C946        H957   1.084       .  S
C947        C948   1.394       .  A
C947        H958   1.084       .  S
C948        C949   1.401       .  A
C948        H959   1.084       .  S
C949        C950   1.423       .  A
C949        C954   1.411       .  A
C950        C951   1.415       .  A
C951        C952   1.395       .  A
C951        H960   1.077       .  S
C952        C953   1.397       .  A
C952        H961   1.084       .  S
C953        C954   1.402       .  A
C954        H962   1.085       .  S
C963        C964   1.401       .  A
C963        C968   1.399       .  A
C964        C965   1.407       .  A
C964        H977   1.083       .  S
C965        C966   1.419       .  A
C965        H978   1.078       .  S
C966        C972   1.435       .  A
C966        C967   1.422       .  A
C967        C969   1.398       .  A
C967        C968   1.399       .  A
C968        H979   1.085       .  S
C969        C970   1.385       .  A
C969        H980   1.084       .  S
C970        C971   1.397       .  A
C970        H981   1.084       .  S
C971        C972   1.423       .  A
C971        C976   1.400       .  A
C972        C973   1.418       .  A
C973        C974   1.406       .  A
C973        H982   1.078       .  S
C974        C975   1.402       .  A
C974        H983   1.083       .  S
C975        C976   1.399       .  A
C976        H984   1.085       .  S
C985        C986   1.402       .  A
C985        C990   1.402       .  A
C986        C987   1.400       .  A
C986        H999   1.083       .  S
C987        C988   1.415       .  A
C987       H1000   1.077       .  S
C988        C994   1.432       .  A
C988        C989   1.423       .  A
C989        C991   1.399       .  A
C989        C990   1.404       .  A
C990       H1001   1.084       .  S
C991        C992   1.388       .  A
C991       H1002   1.084       .  S
C992        C993   1.399       .  A
C992       H1003   1.084       .  S
C993        C994   1.423       .  A
C993        C998   1.402       .  A
C994        C995   1.418       .  A
C995        C996   1.401       .  A
C995       H1004   1.078       .  S
C996        C997   1.397       .  A
C996       H1005   1.083       .  S
C997        C998   1.398       .  A
C998       H1006   1.085       .  S
C1007      C1008   1.402       .  A
C1007      C1012   1.403       .  A
C1008      C1009   1.396       .  A
C1008      H1021   1.083       .  S
C1009      C1010   1.415       .  A
C1009      H1022   1.077       .  S
C1010      C1016   1.429       .  A
C1010      C1011   1.422       .  A
C1011      C1013   1.400       .  A
C1011      C1012   1.404       .  A
C1012      H1023   1.084       .  S
C1013      C1014   1.390       .  A
C1013      H1024   1.084       .  S
C1014      C1015   1.399       .  A
C1014      H1025   1.084       .  S
C1015      C1016   1.422       .  A
C1015      C1020   1.405       .  A
C1016      C1017   1.414       .  A
C1017      C1018   1.395       .  A
C1017      H1026   1.077       .  S
C1018      C1019   1.402       .  A
C1018      H1027   1.083       .  S
C1019      C1020   1.403       .  A
C1020      H1028   1.084       .  S
C1029      C1030   1.402       .  A
C1029      C1034   1.404       .  A
C1030      C1031   1.399       .  A
C1030      H1043   1.083       .  S
C1031      C1032   1.416       .  A
C1031      H1044   1.077       .  S
C1032      C1038   1.432       .  A
C1032      C1033   1.421       .  A
C1033      C1035   1.400       .  A
C1033      C1034   1.405       .  A
C1034      H1045   1.084       .  S
C1035      C1036   1.390       .  A
C1035      H1046   1.084       .  S
C1036      C1037   1.399       .  A
C1036      H1047   1.084       .  S
C1037      C1038   1.423       .  A
C1037      C1042   1.407       .  A
C1038      C1039   1.413       .  A
C1039      C1040   1.396       .  A
C1039      H1048   1.077       .  S
C1040      C1041   1.403       .  A
C1040      H1049   1.083       .  S
C1041      C1042   1.403       .  A
C1042      H1050   1.084       .  S
C1051      C1052   1.400       .  A
C1051      C1056   1.397       .  A
C1052      C1053   1.406       .  A
C1052      H1065   1.083       .  S
C1053      C1054   1.419       .  A
C1053      H1066   1.078       .  S
C1054      C1060   1.433       .  A
C1054      C1055   1.423       .  A
C1055      C1057   1.397       .  A
C1055      C1056   1.395       .  A
C1056      H1067   1.086       .  S
C1057      C1058   1.382       .  A
C1057      H1068   1.084       .  S
C1058      C1059   1.397       .  A
C1058      H1069   1.084       .  S
C1059      C1060   1.423       .  A
C1059      C1064   1.395       .  A
C1060      C1061   1.419       .  A
C1061      C1062   1.406       .  A
C1061      H1070   1.078       .  S
C1062      C1063   1.401       .  A
C1062      H1071   1.083       .  S
C1063      C1064   1.397       .  A
C1064      H1072   1.085       .  S
C1073      C1074   1.402       .  A
C1073      C1078   1.404       .  A
C1074      C1075   1.400       .  A
C1074      H1087   1.083       .  S
C1075      C1076   1.416       .  A
C1075      H1088   1.077       .  S
C1076      C1082   1.433       .  A
C1076      C1077   1.422       .  A
C1077      C1079   1.400       .  A
C1077      C1078   1.406       .  A
C1078      H1089   1.084       .  S
C1079      C1080   1.390       .  A
C1079      H1090   1.084       .  S
C1080      C1081   1.399       .  A
C1080      H1091   1.084       .  S
C1081      C1082   1.422       .  A
C1081      C1086   1.406       .  A
C1082      C1083   1.415       .  A
C1083      C1084   1.399       .  A
C1083      H1092   1.077       .  S
C1084      C1085   1.403       .  A
C1084      H1093   1.083       .  S
C1085      C1086   1.404       .  A
C1086      H1094   1.084       .  S
C1095      C1096   1.403       .  A
C1095      C1100   1.404       .  A
C1096      C1097   1.402       .  A
C1096      H1109   1.083       .  S
C1097      C1098   1.416       .  A
C1097      H1110   1.077       .  S
C1098      C1104   1.435       .  A
C1098      C1099   1.422       .  A
C1099      C1101   1.399       .  A
C1099      C1100   1.406       .  A
C1100      H1111   1.084       .  S
C1101      C1102   1.389       .  A
C1101      H1112   1.084       .  S
C1102      C1103   1.399       .  A
C1102      H1113   1.084       .  S
C1103      C1104   1.423       .  A
C1103      C1108   1.405       .  A
C1104      C1105   1.418       .  A
C1105      C1106   1.403       .  A
C1105      H1114   1.078       .  S
C1106      C1107   1.399       .  A
C1106      H1115   1.083       .  S
C1107      C1108   1.399       .  A
C1108      H1116   1.085       .  S
C1117      C1118   1.399       .  A
C1117      C1122   1.398       .  A
C1118      C1119   1.403       .  A
C1118      H1131   1.083       .  S
C1119      C1120   1.417       .  A
C1119      H1132   1.078       .  S
C1120      C1126   1.434       .  A
C1120      C1121   1.423       .  A
C1121      C1123   1.398       .  A
C1121      C1122   1.404       .  A
C1122      H1133   1.085       .  S
C1123      C1124   1.388       .  A
C1123      H1134   1.084       .  S
C1124      C1125   1.399       .  A
C1124      H1135   1.084       .  S
C1125      C1126   1.422       .  A
C1125      C1130   1.404       .  A
C1126      C1127   1.417       .  A
C1127      C1128   1.403       .  A
C1127      H1136   1.078       .  S
C1128      C1129   1.403       .  A
C1128      H1137   1.083       .  S
C1129      C1130   1.403       .  A
C1130      H1138   1.084       .  S
C1139      C1140   1.402       .  A
C1139      C1144   1.404       .  A
C1140      C1141   1.395       .  A
C1140      H1153   1.083       .  S
C1141      C1142   1.414       .  A
C1141      H1154   1.077       .  S
C1142      C1148   1.430       .  A
C1142      C1143   1.422       .  A
C1143      C1145   1.400       .  A
C1143      C1144   1.407       .  A
C1144      H1155   1.084       .  S
C1145      C1146   1.391       .  A
C1145      H1156   1.084       .  S
C1146      C1147   1.400       .  A
C1146      H1157   1.084       .  S
C1147      C1148   1.422       .  A
C1147      C1152   1.406       .  A
C1148      C1149   1.414       .  A
C1149      C1150   1.396       .  A
C1149      H1158   1.077       .  S
C1150      C1151   1.402       .  A
C1150      H1159   1.083       .  S
C1151      C1152   1.403       .  A
C1152      H1160   1.084       .  S
C1161      C1162   1.403       .  A
C1161      C1166   1.404       .  A
C1162      C1163   1.399       .  A
C1162      H1175   1.083       .  S
C1163      C1164   1.415       .  A
C1163      H1176   1.077       .  S
C1164      C1170   1.433       .  A
C1164      C1165   1.422       .  A
C1165      C1167   1.399       .  A
C1165      C1166   1.406       .  A
C1166      H1177   1.084       .  S
C1167      C1168   1.389       .  A
C1167      H1178   1.084       .  S
C1168      C1169   1.399       .  A
C1168      H1179   1.084       .  S
C1169      C1170   1.423       .  A
C1169      C1174   1.406       .  A
C1170      C1171   1.415       .  A
C1171      C1172   1.398       .  A
C1171      H1180   1.077       .  S
C1172      C1173   1.403       .  A
C1172      H1181   1.083       .  S
C1173      C1174   1.403       .  A
C1174      H1182   1.084       .  S
C1183      C1184   1.402       .  A
C1183      C1188   1.404       .  A
C1184      C1185   1.396       .  A
C1184      H1197   1.083       .  S
C1185      C1186   1.414       .  A
C1185      H1198   1.077       .  S
C1186      C1192   1.431       .  A
C1186      C1187   1.423       .  A
C1187      C1189   1.400       .  A
C1187      C1188   1.408       .  A
C1188      H1199   1.084       .  S
C1189      C1190   1.391       .  A
C1189      H1200   1.084       .  S
C1190      C1191   1.400       .  A
C1190      H1201   1.084       .  S
C1191      C1192   1.421       .  A
C1191      C1196   1.406       .  A
C1192      C1193   1.415       .  A
C1193      C1194   1.397       .  A
C1193      H1202   1.077       .  S
C1194      C1195   1.401       .  A
C1194      H1203   1.083       .  S
C1195      C1196   1.405       .  A
C1196      H1204   1.084       .  S
C1205      C1206   1.402       .  A
C1205      C1210   1.403       .  A
C1206      C1207   1.403       .  A
C1206      H1219   1.083       .  S
C1207      C1208   1.417       .  A
C1207      H1220   1.078       .  S
C1208      C1214   1.433       .  A
C1208      C1209   1.422       .  A
C1209      C1211   1.399       .  A
C1209      C1210   1.403       .  A
C1210      H1221   1.085       .  S
C1211      C1212   1.388       .  A
C1211      H1222   1.084       .  S
C1212      C1213   1.398       .  A
C1212      H1223   1.084       .  S
C1213      C1214   1.422       .  A
C1213      C1218   1.402       .  A
C1214      C1215   1.417       .  A
C1215      C1216   1.403       .  A
C1215      H1224   1.078       .  S
C1216      C1217   1.399       .  A
C1216      H1225   1.083       .  S
C1217      C1218   1.399       .  A
C1218      H1226   1.085       .  S
C1227      C1228   1.401       .  A
C1227      C1232   1.404       .  A
C1228      C1229   1.396       .  A
C1228      H1241   1.083       .  S
C1229      C1230   1.415       .  A
C1229      H1242   1.077       .  S
C1230      C1236   1.431       .  A
C1230      C1231   1.422       .  A
C1231      C1233   1.400       .  A
C1231      C1232   1.406       .  A
C1232      H1243   1.084       .  S
C1233      C1234   1.390       .  A
C1233      H1244   1.084       .  S
C1234      C1235   1.400       .  A
C1234      H1245   1.084       .  S
C1235      C1236   1.422       .  A
C1235      C1240   1.405       .  A
C1236      C1237   1.415       .  A
C1237      C1238   1.396       .  A
C1237      H1246   1.077       .  S
C1238      C1239   1.401       .  A
C1238      H1247   1.083       .  S
C1239      C1240   1.404       .  A
C1240      H1248   1.084       .  S
C1249      C1250   1.396       .  A
C1249      C1254   1.397       .  A
C1250      C1251   1.399       .  A
C1250      H1263   1.084       .  S
C1251      C1252   1.417       .  A
C1251      H1264   1.077       .  S
C1252      C1258   1.431       .  A
C1252      C1253   1.424       .  A
C1253      C1255   1.398       .  A
C1253      C1254   1.404       .  A
C1254      H1265   1.085       .  S
C1255      C1256   1.388       .  A
C1255      H1266   1.084       .  S
C1256      C1257   1.399       .  A
C1256      H1267   1.084       .  S
C1257      C1258   1.422       .  A
C1257      C1262   1.404       .  A
C1258      C1259   1.415       .  A
C1259      C1260   1.399       .  A
C1259      H1268   1.077       .  S
C1260      C1261   1.402       .  A
C1260      H1269   1.083       .  S
C1261      C1262   1.403       .  A
C1262      H1270   1.084       .  S
C1271      C1272   1.403       .  A
C1271      C1276   1.399       .  A
C1272      C1273   1.407       .  A
C1272      H1285   1.083       .  S
C1273      C1274   1.418       .  A
C1273      H1286   1.078       .  S
C1274      C1280   1.435       .  A
C1274      C1275   1.423       .  A
C1275      C1277   1.396       .  A
C1275      C1276   1.396       .  A
C1276      H1287   1.085       .  S
C1277      C1278   1.381       .  A
C1277      H1288   1.084       .  S
C1278      C1279   1.397       .  A
C1278      H1289   1.084       .  S
C1279      C1280   1.421       .  A
C1279      C1284   1.394       .  A
C1280      C1281   1.420       .  A
C1281      C1282   1.409       .  A
C1281      H1290   1.078       .  S
C1282      C1283   1.402       .  A
C1282      H1291   1.083       .  S
C1283      C1284   1.400       .  A
C1284      H1292   1.085       .  S
C1293      C1294   1.400       .  A
C1293      C1298   1.397       .  A
C1294      C1295   1.404       .  A
C1294      H1307   1.083       .  S
C1295      C1296   1.418       .  A
C1295      H1308   1.078       .  S
C1296      C1302   1.432       .  A
C1296      C1297   1.423       .  A
C1297      C1299   1.397       .  A
C1297      C1298   1.398       .  A
C1298      H1309   1.085       .  S
C1299      C1300   1.384       .  A
C1299      H1310   1.084   1_554  S
C1300      C1301   1.397       .  A
C1300      H1311   1.084   1_554  S
C1301      C1302   1.423       .  A
C1301      C1306   1.398       .  A
C1302      C1303   1.418       .  A
C1303      C1304   1.404       .  A
C1303      H1312   1.078       .  S
C1304      C1305   1.399       .  A
C1304      H1313   1.083       .  S
C1305      C1306   1.398       .  A
C1306      H1314   1.086       .  S
C1315      C1316   1.402       .  A
C1315      C1320   1.403       .  A
C1316      C1317   1.399       .  A
C1316      H1329   1.083       .  S
C1317      C1318   1.416       .  A
C1317      H1330   1.077       .  S
C1318      C1324   1.431       .  A
C1318      C1319   1.422       .  A
C1319      C1321   1.399       .  A
C1319      C1320   1.404       .  A
C1320      H1331   1.084       .  S
C1321      C1322   1.389       .  A
C1321      H1332   1.084       .  S
C1322      C1323   1.399       .  A
C1322      H1333   1.084       .  S
C1323      C1324   1.423       .  A
C1323      C1328   1.405       .  A
C1324      C1325   1.414       .  A
C1325      C1326   1.398       .  A
C1325      H1334   1.077       .  S
C1326      C1327   1.403       .  A
C1326      H1335   1.083       .  S
C1327      C1328   1.403       .  A
C1328      H1336   1.084       .  S
C1337      C1338   1.399       .  A
C1337      C1342   1.398       .  A
C1338      C1339   1.404       .  A
C1338      H1351   1.083       .  S
C1339      C1340   1.419       .  A
C1339      H1352   1.078       .  S
C1340      C1346   1.434       .  A
C1340      C1341   1.422       .  A
C1341      C1343   1.398       .  A
C1341      C1342   1.402       .  A
C1342      H1353   1.085       .  S
C1343      C1344   1.387       .  A
C1343      H1354   1.084       .  S
C1344      C1345   1.398       .  A
C1344      H1355   1.084       .  S
C1345      C1346   1.424       .  A
C1345      C1350   1.404       .  A
C1346      C1347   1.415       .  A
C1347      C1348   1.401       .  A
C1347      H1356   1.078       .  S
C1348      C1349   1.404       .  A
C1348      H1357   1.083       .  S
C1349      C1350   1.401       .  A
C1350      H1358   1.084       .  S
C1359      C1360   1.401       .  A
C1359      C1364   1.404       .  A
C1360      C1361   1.395       .  A
C1360      H1373   1.083       .  S
C1361      C1362   1.414       .  A
C1361      H1374   1.077       .  S
C1362      C1368   1.428       .  A
C1362      C1363   1.422       .  A
C1363      C1365   1.400       .  A
C1363      C1364   1.405       .  A
C1364      H1375   1.084       .  S
C1365      C1366   1.390       .  A
C1365      H1376   1.084       .  S
C1366      C1367   1.400       .  A
C1366      H1377   1.084       .  S
C1367      C1368   1.422       .  A
C1367      C1372   1.405       .  A
C1368      C1369   1.414       .  A
C1369      C1370   1.394       .  A
C1369      H1378   1.076       .  S
C1370      C1371   1.401       .  A
C1370      H1379   1.083       .  S
C1371      C1372   1.403       .  A
C1372      H1380   1.084       .  S
C1381      C1382   1.398       .  A
C1381      C1386   1.404       .  A
C1382      C1383   1.387       .  A
C1382      H1395   1.084   1_545  S
C1383      C1384   1.412       .  A
C1383      H1396   1.076   1_545  S
C1384      C1390   1.427       .  A
C1384      C1385   1.423       .  A
C1385      C1387   1.402       .  A
C1385      C1386   1.413       .  A
C1386      H1397   1.084       .  S
C1387      C1388   1.397       .  A
C1387      H1398   1.084       .  S
C1388      C1389   1.402       .  A
C1388      H1399   1.084       .  S
C1389      C1390   1.424       .  A
C1389      C1394   1.415       .  A
C1390      C1391   1.411       .  A
C1391      C1392   1.386       .  A
C1391      H1400   1.076   1_545  S
C1392      C1393   1.398       .  A
C1392      H1401   1.084   1_545  S
C1393      C1394   1.403       .  A
C1394      H1402   1.084       .  S
C1403      C1404   1.402       .  A
C1403      C1408   1.404       .  A
C1404      C1405   1.399       .  A
C1404      H1417   1.083       .  S
C1405      C1406   1.416       .  A
C1405      H1418   1.077       .  S
C1406      C1412   1.432       .  A
C1406      C1407   1.422       .  A
C1407      C1409   1.399       .  A
C1407      C1408   1.404       .  A
C1408      H1419   1.084       .  S
C1409      C1410   1.389       .  A
C1409      H1420   1.084       .  S
C1410      C1411   1.399       .  A
C1410      H1421   1.084       .  S
C1411      C1412   1.423       .  A
C1411      C1416   1.406       .  A
C1412      C1413   1.414       .  A
C1413      C1414   1.397       .  A
C1413      H1422   1.077       .  S
C1414      C1415   1.403       .  A
C1414      H1423   1.083       .  S
C1415      C1416   1.403       .  A
C1416      H1424   1.084       .  S
