geometry optimzed in LAMMPS
_audit_creation_date              2020-11-30 
_audit_creation_method            'lammps2cif' 
_symmetry_space_group_name_H-M    'P1' 
_symmetry_Int_Tables_number       1 
_symmetry_cell_setting            triclinic 
loop_ 
_symmetry_equiv_pos_as_xyz 
  x,y,z 
_cell_length_a                    48.37667033 
_cell_length_b                    48.52182141195245 
_cell_length_c                    48.354887350288955 
_cell_angle_alpha                 90.08629556076747 
_cell_angle_beta                  90.02687502488435 
_cell_angle_gamma                 90.14237784868126 
loop_ 
_atom_site_label 
_atom_site_type_symbol 
_atom_site_fract_x 
_atom_site_fract_y 
_atom_site_fract_z 
_atom_site_charge 
O1          O  0.94859378  0.99923898  0.95334540    -0.78400
C2          C  0.01822012  0.94720552  0.94933730     0.82700
O3          O  0.95654507  0.95953165  0.04685414    -0.79500
O4          O  0.05490159  0.97659409  0.02763417    -0.81000
O5          O  0.02076434  0.05917078  0.98581545    -0.80800
O6          O  0.95559336  0.04308514  0.96495566    -0.79400
Zn7        Zn  0.97071118  0.97611735  0.97965245     1.55700
O8          O  0.05351956  0.02708263  0.98247046    -0.80800
Cd9        Cd  0.98499238  0.03808959  0.99621577     1.59700
Cd10       Cd  0.98763017  0.98924269  0.04301158     1.59600
O11         O  0.97129328  0.05689619  0.03213038    -0.80800
O12         O  0.99416742  0.99831319  0.00293535    -1.91300
Cd13       Cd  0.03374331  0.99052726  0.99302696     1.59900
O14         O  0.97601165  0.02463688  0.06455165    -0.80800
O15         O  0.03720611  0.96137969  0.96103693    -0.79400
C16         C  0.94113979  0.94872983  0.02830481     0.83100
C17         C  0.94414759  0.02481538  0.94978076     0.82800
O18         O  0.99293104  0.95060729  0.95580497    -0.78400
C19         C  0.04585385  0.05224088  0.98174487     0.83600
O20         O  0.94440031  0.95395010  0.00270232    -0.78500
C21         C  0.97031686  0.04929818  0.05733941     0.83700
C22         C  0.04863348  0.97257102  0.05295893     0.84000
O23         O  0.02394488  0.97568535  0.06173156    -0.80900
O24         O  0.00526016  0.30243589  0.29574514    -0.78400
C25         C  0.94949287  0.30486405  0.22640310     0.82700
O26         O  0.96478792  0.21087274  0.29069501    -0.79500
O27         O  0.97796952  0.22515800  0.19143303    -0.81000
O28         O  0.06106939  0.27223759  0.21931787    -0.80800
O29         O  0.04898165  0.29130384  0.28688022    -0.79400
Zn30       Zn  0.98092370  0.27722507  0.27381505     1.55700
O31         O  0.02667250  0.27167124  0.18849580    -0.80800
Cd32       Cd  0.04267882  0.26089514  0.25656622     1.59700
Cd33       Cd  0.99369339  0.21371258  0.25891524     1.59600
O34         O  0.06274228  0.22505056  0.26858369    -0.80800
O35         O  0.00223532  0.25328994  0.25018127    -1.91300
Cd36       Cd  0.99184894  0.26071744  0.21069170     1.59900
O37         O  0.02960740  0.19306571  0.26989461    -0.80800
O38         O  0.96147490  0.29103766  0.20743181    -0.79400
C39         C  0.95341001  0.22980259  0.30502641     0.83100
C40         C  0.03104803  0.30584453  0.29958061     0.82800
O41         O  0.95516615  0.30113325  0.25183891    -0.78400
C42         C  0.05219183  0.27445214  0.19452793     0.83600
O43         O  0.95840622  0.25521630  0.30073838    -0.78500
C44         C  0.05491849  0.20019158  0.27226520     0.83700
C45         C  0.97457487  0.20031481  0.19929783     0.84000
O46         O  0.97885847  0.19304332  0.22426868    -0.80900
O47         O  0.75151331  0.30062402  0.45259191    -0.78400
C48         C  0.80541678  0.30093114  0.52321687     0.82700
O49         O  0.79419010  0.20864119  0.46272408    -0.79500
O50         O  0.76748914  0.22578100  0.56122844    -0.81000
O51         O  0.69097972  0.27236976  0.52273238    -0.80800
O52         O  0.70794361  0.28681164  0.45655660    -0.79400
Zn53       Zn  0.77407249  0.27452958  0.47523904     1.55700
O54         O  0.72232253  0.27692736  0.55620039    -0.80800
Cd55       Cd  0.71229097  0.25786041  0.48846749     1.59700
Cd56       Cd  0.76289400  0.21233784  0.49230691     1.59600
O57         O  0.69416197  0.22042887  0.47791982    -0.80800
O58         O  0.75191360  0.25165771  0.49874455    -1.91300
Cd59       Cd  0.75839382  0.26137795  0.53873090     1.59900
O60         O  0.72853450  0.18989237  0.48028964    -0.80800
O61         O  0.79106350  0.28977121  0.54238252    -0.79400
C62         C  0.80409092  0.22721748  0.44689742     0.83100
C63         C  0.72614844  0.30269215  0.44595836     0.82800
O64         O  0.80044915  0.29626951  0.49781847    -0.78400
C65         C  0.69741568  0.27860130  0.54756233     0.83600
O66         O  0.79686052  0.25230119  0.44902870    -0.78500
C67         C  0.70314229  0.19574422  0.47634699     0.83700
C68         C  0.77384638  0.20121528  0.55417157     0.84000
O69         O  0.77486857  0.19383647  0.52888250    -0.80900
O70         O  0.79430921  0.00209843  0.80084972    -0.70400
C71         C  0.72297852  0.95158965  0.80570039     0.82700
O72         O  0.78644428  0.96041181  0.70906292    -0.79500
O73         O  0.68721843  0.98148046  0.72668786    -0.81000
O74         O  0.72266888  0.06206734  0.77099956    -0.80800
O75         O  0.78846147  0.04594869  0.78893322    -0.79400
Zn76       Zn  0.77127972  0.97902431  0.77559331     1.55700
O77         O  0.68970988  0.03011480  0.77438777    -0.80800
Cd78       Cd  0.75788879  0.04104210  0.75869808     1.59700
Cd79       Cd  0.75594545  0.99126134  0.71231102     1.59600
O80         O  0.77057252  0.05948038  0.72220483    -0.80800
O81         O  0.74848773  0.00122476  0.75204373    -1.91300
Cd82       Cd  0.70858624  0.99394868  0.76163297     1.59900
O83         O  0.76876021  0.02606748  0.69054362    -0.80800
O84         O  0.70402187  0.96420517  0.79252166    -0.79400
C85         C  0.80103942  0.94948420  0.72817569     0.83100
C86         C  0.79964753  0.02755403  0.80403145     0.82800
O87         O  0.74841775  0.95545346  0.80033298    -0.78400
C88         C  0.69769729  0.05511801  0.77602468     0.83600
O89         O  0.79691898  0.95519804  0.75354595    -0.78500
C90         C  0.77311465  0.05116505  0.69729561     0.83700
C91         C  0.69412983  0.97736292  0.70157616     0.84000
O92         O  0.71913458  0.97951636  0.69335360    -0.80900
O93         O  0.30445065  0.95615676  0.24820792    -0.78400
C94         C  0.30575502  0.02683457  0.30075544     0.82700
O95         O  0.21094310  0.96182497  0.28527073    -0.79500
O96         O  0.22822216  0.06184449  0.26614970    -0.81000
O97         O  0.27591458  0.02694951  0.18697579    -0.80800
O98         O  0.29268176  0.96071128  0.20394418    -0.79400
Zn99       Zn  0.27809446  0.97874142  0.27066635     1.55700
O100        O  0.27787408  0.05985237  0.21920566    -0.80800
Cd101      Cd  0.26253781  0.99168590  0.20747202     1.59700
Cd102      Cd  0.21509145  0.99357914  0.25616976     1.59600
O103        O  0.22617443  0.97970438  0.18745138    -0.80800
O104        O  0.25503636  0.00116471  0.24735179    -1.91300
Cd105      Cd  0.26404664  0.04092593  0.25501546     1.59900
O106        O  0.19408291  0.98237679  0.22038467    -0.80800
O107        O  0.29407709  0.04528169  0.28604914    -0.79400
C108        C  0.22972675  0.94762244  0.29709980     0.83100
C109        C  0.30767769  0.95000176  0.22282951     0.82800
O110        O  0.30060822  0.00134545  0.29718398    -0.78400
C111        C  0.28058887  0.05186801  0.19420904     0.83600
O112        O  0.25522100  0.95247279  0.29271987    -0.78500
C113        C  0.20102452  0.97795779  0.19530361     0.83700
C114        C  0.20327960  0.05457834  0.27093018     0.84000
O115        O  0.19564109  0.02940654  0.26950902    -0.80900
O116        O  0.04894676  0.54746701  0.50046720    -0.78400
C117        C  0.97943502  0.54843255  0.55610255     0.82700
O118        O  0.04518937  0.45660399  0.53969269    -0.79500
O119        O  0.94509435  0.47064519  0.52284291    -0.81000
O120        O  0.97394106  0.51865526  0.44157515    -0.80800
O121        O  0.04058796  0.53798195  0.45622456    -0.79400
Zn122      Zn  0.02687962  0.52232815  0.52403455     1.55700
O123        O  0.94264882  0.51960107  0.47526012    -0.80800
Cd124      Cd  0.01071788  0.50697129  0.46102259     1.59700
Cd125      Cd  0.01356796  0.45990022  0.51023078     1.59600
O126        O  0.02425629  0.47118205  0.44122059    -0.80800
O127        O  0.00388745  0.49914574  0.50138639    -1.91300
Cd128      Cd  0.96414552  0.50689286  0.51045086     1.59900
O129        O  0.02597412  0.43963691  0.47467651    -0.80800
O130        O  0.96062546  0.53619687  0.54214052    -0.79400
C131        C  0.05940529  0.47573013  0.55098269     0.83100
C132        C  0.05356330  0.55143064  0.47490062     0.82800
O133        O  0.00495281  0.54447762  0.55119249    -0.78400
C134        C  0.94910499  0.52238723  0.44980217     0.83600
O135        O  0.05425939  0.50089851  0.54595573    -0.78500
C136        C  0.02857583  0.44651650  0.44937076     0.83700
C137        C  0.95326106  0.44590877  0.52646633     0.84000
O138        O  0.97853789  0.43919735  0.52332318    -0.80900
O139        O  0.45060505  0.29927415  0.74385608    -0.78400
C140        C  0.44976505  0.22973973  0.79901044     0.82700
O141        O  0.54269295  0.29394265  0.78492987    -0.79500
O142        O  0.52733556  0.19504768  0.76719498    -0.81000
O143        O  0.47859404  0.22458791  0.68563318    -0.80800
O144        O  0.46181189  0.29188174  0.69982125    -0.79400
Zn145      Zn  0.47632710  0.27733339  0.76740127     1.55700
O146        O  0.47967137  0.19307817  0.71925880    -0.80800
Cd147      Cd  0.49173883  0.26106962  0.70495129     1.59700
Cd148      Cd  0.53918167  0.26283893  0.75487175     1.59600
O149        O  0.52801045  0.27343464  0.68540839    -0.80800
O150        O  0.49965645  0.25409135  0.74529911    -1.91300
Cd151      Cd  0.49171316  0.21451653  0.75431422     1.59900
O152        O  0.55944960  0.27497036  0.71928199    -0.80800
O153        O  0.46198551  0.21088185  0.78531255    -0.79400
C154        C  0.52356936  0.30858393  0.79560829     0.83100
C155        C  0.44730591  0.30401056  0.71820405     0.82800
O156        O  0.45392603  0.25513297  0.79392468    -0.78400
C157        C  0.47581608  0.19977181  0.69406319     0.83600
O158        O  0.49826378  0.30423485  0.78991382    -0.78500
C159        C  0.55270812  0.27742883  0.69389574     0.83700
C160        C  0.55227583  0.20265644  0.77108345     0.84000
O161        O  0.55973925  0.22769176  0.76798497    -0.80900
O162        O  0.79535127  0.74877989  0.94973181    -0.78400
C163        C  0.72625751  0.80176616  0.94644075     0.82700
O164        O  0.78626689  0.78888423  0.04287941    -0.79500
O165        O  0.68792304  0.76824595  0.02353247    -0.81000
O166        O  0.72341544  0.68910891  0.97940332    -0.80800
O167        O  0.78828083  0.70475872  0.96024742    -0.79400
Zn168      Zn  0.77348290  0.77181001  0.97590210     1.55700
O169        O  0.69116158  0.72138433  0.97398097    -0.80800
Cd170      Cd  0.75885286  0.70965560  0.99148631     1.59700
Cd171      Cd  0.75609088  0.75848721  0.03833922     1.59600
O172        O  0.77194351  0.69059528  0.02754999    -0.80800
O173        O  0.74965249  0.74941967  0.99838958    -1.91300
Cd174      Cd  0.71004977  0.75717464  0.98833653     1.59900
O175        O  0.76904041  0.72358794  0.05944600    -0.80800
O176        O  0.70700782  0.78825811  0.95841739    -0.79400
C177        C  0.80227131  0.79946618  0.02479637     0.83100
C178        C  0.79960602  0.72329900  0.94538400     0.82800
O179        O  0.75158258  0.79742704  0.95209434    -0.78400
C180        C  0.69883773  0.69623430  0.97324307     0.83600
O181        O  0.79982783  0.79391291  0.99916116    -0.78500
C182        C  0.77389107  0.69866134  0.05261349     0.83700
C183        C  0.69447907  0.77238228  0.04878998     0.84000
O184        O  0.71943983  0.77052732  0.05714479    -0.80900
O185        O  0.29741379  0.24810863  0.94736637    -0.78400
C186        C  0.22576770  0.29782675  0.94310711     0.82700
O187        O  0.29060803  0.28904143  0.03825413    -0.79500
O188        O  0.19242804  0.26948528  0.02406682    -0.81000
O189        O  0.22476961  0.18682956  0.97947389    -0.80800
O190        O  0.29045145  0.20378702  0.95662755    -0.79400
Zn191      Zn  0.27428536  0.27055521  0.97233900     1.55700
O192        O  0.19196846  0.21909177  0.97882321    -0.80800
Cd193      Cd  0.26113547  0.20814426  0.98839190     1.59700
Cd194      Cd  0.26107601  0.25752027  0.03537633     1.59600
O195        O  0.27646856  0.18970470  0.02383830    -0.80800
O196        O  0.25210682  0.24797851  0.99601251    -1.91300
Cd197      Cd  0.21199898  0.25589528  0.98833075     1.59900
O198        O  0.27584818  0.22310461  0.05555965    -0.80800
O199        O  0.20697680  0.28523279  0.95671817    -0.79400
C200        C  0.30425166  0.30066506  0.01890037     0.83100
C201        C  0.30234730  0.22283440  0.94282787     0.82800
O202        O  0.25126078  0.29383819  0.94786574    -0.78400
C203        C  0.19943745  0.19388955  0.97726995     0.83600
O204        O  0.29976760  0.29488845  0.99363686    -0.78500
C205        C  0.28020492  0.19814883  0.04855082     0.83700
C206        C  0.20022004  0.27150810  0.04920017     0.84000
O207        O  0.22526708  0.26772408  0.05648849    -0.80900
O208        O  0.74841243  0.44577245  0.29078696    -0.78400
C209        C  0.79826721  0.44210340  0.21867066     0.82700
O210        O  0.79224762  0.53616410  0.28632998    -0.79500
O211        O  0.76980629  0.52346518  0.18669373    -0.81000
O212        O  0.68854261  0.47906162  0.21973991    -0.80800
O213        O  0.70463513  0.45810715  0.28456012    -0.79400
Zn214      Zn  0.77211710  0.47107581  0.26845959     1.55700
O215        O  0.72072695  0.47650482  0.18686585    -0.80800
Cd216      Cd  0.71002672  0.48955911  0.25546261     1.59700
Cd217      Cd  0.76126725  0.53488523  0.25565467     1.59600
O218        O  0.69221654  0.52573931  0.26971912    -0.80800
O219        O  0.75020949  0.49584963  0.24661837    -1.91300
Cd220      Cd  0.75714928  0.48786616  0.20636927     1.59900
O221        O  0.72664777  0.55642126  0.26937058    -0.80800
O222        O  0.78613459  0.45653033  0.20031843    -0.79400
C223        C  0.80358004  0.51652026  0.29977642     0.83100
C224        C  0.72278521  0.44265822  0.29571920     0.82800
O225        O  0.79445786  0.44647841  0.24432582    -0.78400
C226        C  0.69559505  0.47489120  0.19465954     0.83600
O227        O  0.79737183  0.49147977  0.29461912    -0.78500
C228        C  0.70123929  0.55025323  0.27313657     0.83700
C229        C  0.77474522  0.54816072  0.19430988     0.84000
O230        O  0.77374415  0.55537448  0.21973106    -0.80900
O231        O  0.44871768  0.95587946  0.49420413    -0.78400
C232        C  0.45535888  0.02456556  0.44172016     0.82700
O233        O  0.54625414  0.95625794  0.46678381    -0.79500
O234        O  0.53101420  0.05632647  0.48143542    -0.81000
O235        O  0.47409339  0.02785718  0.55740548    -0.80800
O236        O  0.45484981  0.96308178  0.53931131    -0.79400
Zn237      Zn  0.47875510  0.97583135  0.47406687     1.55700
O238        O  0.47880361  0.05896226  0.52398874    -0.80800
Cd239      Cd  0.48711158  0.99150635  0.53856766     1.59700
Cd240      Cd  0.54003390  0.98809392  0.49558072     1.59600
O241        O  0.51999447  0.97880239  0.56280163    -0.80800
O242        O  0.49986443  0.99801155  0.49952514    -1.91300
Cd243      Cd  0.49365959  0.03767027  0.49023533     1.59900
O244        O  0.55581080  0.97626869  0.53372827    -0.80800
O245        O  0.46618593  0.04269563  0.45749415    -0.79400
C246        C  0.52829010  0.94225254  0.45339193     0.83100
C247        C  0.44164708  0.95208665  0.51925901     0.82800
O248        O  0.45987947  0.99895301  0.44519197    -0.78400
C249        C  0.47310439  0.05270705  0.54890631     0.83600
O250        O  0.50258013  0.94759704  0.45517182    -0.78500
C251        C  0.54556553  0.97465004  0.55798812     0.83700
C252        C  0.55603833  0.04814197  0.48059271     0.84000
O253        O  0.56248472  0.02296039  0.48458947    -0.80900
O254        O  0.99904126  0.70584181  0.69836395    -0.78400
C255        C  0.05105162  0.77726454  0.69940274     0.82700
O256        O  0.03604600  0.70811527  0.79151713    -0.79500
O257        O  0.01977633  0.80925120  0.77886509    -0.81000
O258        O  0.93795993  0.77597077  0.72816873    -0.80800
O259        O  0.95513688  0.70968875  0.71147637    -0.79400
Zn260      Zn  0.02160009  0.72797742  0.72524333     1.55700
O261        O  0.96944026  0.80953290  0.73044408    -0.80800
Cd262      Cd  0.95879301  0.74081519  0.74120207     1.59700
Cd263      Cd  0.00736222  0.74026456  0.78878389     1.59600
O264        O  0.93891530  0.72807436  0.77691336    -0.80800
O265        O  0.99856897  0.74980312  0.74930798    -1.91300
Cd266      Cd  0.00600365  0.79006852  0.74244195     1.59900
O267        O  0.97162722  0.72799885  0.80926545    -0.80800
O268        O  0.03597058  0.79516238  0.71152455    -0.79400
C269        C  0.04739019  0.69435220  0.77209227     0.83100
C270        C  0.97369561  0.69916211  0.69601810     0.82800
O271        O  0.04809362  0.75155831  0.70379119    -0.78400
C272        C  0.94468071  0.80134207  0.72599542     0.83600
O273        O  0.04329782  0.70035344  0.74682556    -0.78500
C274        C  0.94651813  0.72456120  0.80192747     0.83700
C275        C  0.02442907  0.80047661  0.80336190     0.84000
O276        O  0.02161963  0.77504998  0.80952518    -0.80900
O277        O  0.45316912  0.79527419  0.25753815    -0.78400
C278        C  0.45019016  0.72466855  0.31077370     0.82700
O279        O  0.54741477  0.78563134  0.29265717    -0.79500
O280        O  0.52691413  0.68722903  0.27728591    -0.81000
O281        O  0.47728072  0.71977366  0.19771879    -0.80800
O282        O  0.46136590  0.78678336  0.21310867    -0.79400
Zn283      Zn  0.47911222  0.77159725  0.27965541     1.55700
O284        O  0.47815246  0.68709913  0.23001954    -0.80800
Cd285      Cd  0.49098403  0.75555757  0.21676689     1.59700
Cd286      Cd  0.54129471  0.75459601  0.26276300     1.59600
O287        O  0.52601433  0.76649175  0.19463614    -0.80800
O288        O  0.50068251  0.74754018  0.25633205    -1.91300
Cd289      Cd  0.49136630  0.70803123  0.26532402     1.59900
O290        O  0.56029916  0.76526620  0.22540953    -0.80800
O291        O  0.46140251  0.70551021  0.29655690    -0.79400
C292        C  0.52953085  0.80031995  0.30533463     0.83100
C293        C  0.44842688  0.79980101  0.23204540     0.82800
O294        O  0.45598571  0.74991012  0.30637700    -0.78400
C295        C  0.47457341  0.69464747  0.20498966     0.83600
O296        O  0.50370934  0.79687254  0.30147491    -0.78500
C297        C  0.55158982  0.76866240  0.20067324     0.83700
C298        C  0.55241639  0.69378210  0.27919480     0.84000
O299        O  0.56076739  0.71846074  0.27529080    -0.80900
O300        O  0.19485025  0.75596452  0.54523776    -0.78400
C301        C  0.19043595  0.70302584  0.47348774     0.82700
O302        O  0.28434865  0.71605313  0.54180310    -0.79500
O303        O  0.27367157  0.72760256  0.44215419    -0.81000
O304        O  0.22131135  0.81079894  0.46781241    -0.80800
O305        O  0.20477049  0.79971403  0.53604000    -0.79400
Zn306      Zn  0.21873332  0.73179303  0.52208041     1.55700
O307        O  0.22640413  0.77688826  0.43723639    -0.80800
Cd308      Cd  0.23456779  0.79340001  0.50497713     1.59700
Cd309      Cd  0.28252168  0.74497086  0.50989890     1.59600
O310        O  0.27054079  0.81401483  0.51571018    -0.80800
O311        O  0.24326110  0.75317906  0.49937085    -1.91300
Cd312      Cd  0.23755043  0.74257666  0.45971386     1.59900
O313        O  0.30237318  0.78131327  0.52109159    -0.80800
O314        O  0.20618214  0.71357570  0.45521127    -0.79400
C315        C  0.26499540  0.70282036  0.55388763     0.83100
C316        C  0.19096493  0.78156501  0.54927514     0.82800
O317        O  0.19327200  0.70875113  0.49902909    -0.78400
C318        C  0.22041915  0.80180513  0.44295673     0.83600
O319        O  0.23974326  0.70699431  0.54772058    -0.78500
C320        C  0.29526003  0.80663445  0.52116108     0.83700
C321        C  0.29823851  0.72426768  0.45115165     0.84000
O322        O  0.30448125  0.72956919  0.47624892    -0.80900
O323        O  0.30323009  0.45825501  0.75350466    -0.78400
C324        C  0.29929770  0.53031511  0.80725080     0.82700
O325        O  0.20989674  0.46267868  0.79169628    -0.79500
O326        O  0.22211499  0.56129372  0.77172531    -0.81000
O327        O  0.27388081  0.53162580  0.69257141    -0.80800
O328        O  0.29294915  0.46545107  0.70924029    -0.79400
Zn329      Zn  0.27635647  0.48086559  0.77573041     1.55700
O330        O  0.27249325  0.56313689  0.72592806    -0.80800
Cd331      Cd  0.26205932  0.49531749  0.71274416     1.59700
Cd332      Cd  0.21291802  0.49264693  0.76054459     1.59600
O333        O  0.22720375  0.48100565  0.69250412    -0.80800
O334        O  0.25257959  0.50260982  0.75250914    -1.91300
Cd335      Cd  0.25888394  0.54258320  0.76073119     1.59900
O336        O  0.19437806  0.47785501  0.72469247    -0.80800
O337        O  0.28689427  0.54834088  0.79273836    -0.79400
C338        C  0.22921538  0.45003126  0.80441015     0.83100
C339        C  0.30712268  0.45338064  0.72789993     0.82800
O340        O  0.29691982  0.50465709  0.80241925    -0.78400
C341        C  0.27638247  0.55658877  0.70071441     0.83600
O342        O  0.25449272  0.45513715  0.79926698    -0.78500
C343        C  0.20250093  0.47522114  0.69969697     0.83700
C344        C  0.19725240  0.55311593  0.77477163     0.84000
O345        O  0.19071997  0.52772676  0.77193403    -0.80900
O346        O  0.49540716  0.45499687  0.95018052    -0.78400
C347        C  0.44730639  0.44904465  0.02256216     0.82700
O348        O  0.45496956  0.54743808  0.96663953    -0.79500
O349        O  0.47972016  0.52375558  0.06179012    -0.81000
O350        O  0.56009856  0.48228066  0.01970856    -0.80800
O351        O  0.53976099  0.46602141  0.95488702    -0.79400
Zn352      Zn  0.47382276  0.48041774  0.97483003     1.55700
O353        O  0.52954250  0.47777333  0.05387044    -0.80800
Cd354      Cd  0.53675373  0.49567500  0.98628580     1.59700
Cd355      Cd  0.48762678  0.54229976  0.99437905     1.59600
O356        O  0.55430917  0.53244961  0.97356780    -0.80800
O357        O  0.49751820  0.50223880  0.99815608    -1.91300
Cd358      Cd  0.49226967  0.49058464  0.03759544     1.59900
O359        O  0.52184625  0.56430325  0.98009645    -0.80800
O360        O  0.46319899  0.45894805  0.04114741    -0.79400
C361        C  0.44363811  0.52981178  0.95062516     0.83100
C362        C  0.52070800  0.45135071  0.94400233     0.82800
O363        O  0.44901384  0.45656586  0.99743926    -0.78400
C364        C  0.55423448  0.47638442  0.04473242     0.83600
O365        O  0.44988815  0.50436665  0.95129566    -0.78500
C366        C  0.54637704  0.55752300  0.97313100     0.83700
C367        C  0.47505097  0.54916991  0.05696152     0.84000
O368        O  0.47666303  0.55903592  0.03253610    -0.80900
C369        C  0.31687772  0.53881894  0.83056533    -0.19800
C370        C  0.31372829  0.52616925  0.85661129     0.36500
C371        C  0.33359009  0.53087597  0.87722712    -0.25700
C372        C  0.35649057  0.54791535  0.87221394     0.02900
C373        C  0.35865803  0.56195475  0.84674485     0.27700
C374        C  0.33862016  0.55741035  0.82614393    -0.24900
N375        N  0.29076502  0.50797310  0.86166237    -0.82300
H376        H  0.33201059  0.52005588  0.89675451     0.13500
C377        C  0.37973083  0.54756673  0.89219864     0.02900
N378        N  0.38176077  0.57990719  0.84162535    -0.80800
H379        H  0.34080863  0.56716218  0.80611334     0.18300
C380        C  0.40520700  0.53710489  0.88328553    -0.25700
C381        C  0.42678342  0.53247864  0.90203577     0.36400
C382        C  0.42286819  0.53858587  0.93023916    -0.19700
C383        C  0.39786650  0.55021338  0.93911879    -0.24900
C384        C  0.37607257  0.55459834  0.92030075     0.27700
H385        H  0.40785244  0.53141954  0.86176685     0.13500
N386        N  0.45250748  0.52093982  0.89273027    -0.82200
H387        H  0.39493233  0.55465952  0.96088792     0.18300
N388        N  0.35005995  0.56541836  0.92962961    -0.80800
H389        H  0.45198548  0.51735983  0.87140786     0.34000
H390        H  0.46793435  0.53568538  0.89616149     0.38500
H391        H  0.35065715  0.56928912  0.95089782     0.33900
H392        H  0.34713187  0.58442976  0.91992517     0.30600
H393        H  0.38048447  0.58838136  0.82179994     0.33900
H394        H  0.38043474  0.59632673  0.85558222     0.30600
H395        H  0.27269256  0.51968306  0.86037019     0.38500
H396        H  0.29157966  0.50014756  0.88177892     0.34000
C397        C  0.27129231  0.68209940  0.57575531    -0.19800
C398        C  0.29712970  0.66852978  0.57786177     0.36500
C399        C  0.30084037  0.64791919  0.59808504    -0.25700
C400        C  0.27953712  0.64093074  0.61646770     0.02900
C401        C  0.25389672  0.65452814  0.61451300     0.27700
C402        C  0.25009612  0.67489730  0.59432888    -0.24900
N403        N  0.31927763  0.67510807  0.55918412    -0.82300
H404        H  0.32051739  0.63743360  0.59974574     0.13500
C405        C  0.28393813  0.61957133  0.63803630     0.02900
N406        N  0.23167846  0.64735825  0.63293820    -0.80800
H407        H  0.23026193  0.68514225  0.59306809     0.18300
C408        C  0.28141614  0.62713493  0.66585467    -0.25700
C409        C  0.28032833  0.60725936  0.68692419     0.36400
C410        C  0.28214543  0.57882108  0.68001864    -0.19700
C411        C  0.28709104  0.57157048  0.65220561    -0.24900
C412        C  0.28787312  0.59162961  0.63115991     0.27700
H413        H  0.27884349  0.64872636  0.67100989     0.13500
N414        N  0.27622957  0.61608042  0.71503052    -0.82200
H415        H  0.28913965  0.55005281  0.64660011     0.18300
N416        N  0.29162532  0.58364071  0.60276991    -0.80800
H417        H  0.27799669  0.63750564  0.71665941     0.34000
H418        H  0.25580824  0.61137769  0.72032864     0.38500
H419        H  0.29446523  0.56234101  0.60119947     0.33900
H420        H  0.27336778  0.58818095  0.59215449     0.30600
H421        H  0.21423091  0.65940718  0.62898348     0.33900
H422        H  0.22605597  0.62694958  0.62877372     0.30600
H423        H  0.32635728  0.69484896  0.56426570     0.38500
H424        H  0.33602306  0.66188612  0.56229448     0.34000
C425        C  0.46871920  0.67340815  0.18339808    -0.19800
C426        C  0.47638966  0.67764298  0.15543274     0.36500
C427        C  0.47264958  0.65636476  0.13606902    -0.25700
C428        C  0.46158059  0.63073795  0.14368355     0.02900
C429        C  0.45347903  0.62652404  0.17143433     0.27700
C430        C  0.45728473  0.64780681  0.19100122    -0.24900
N431        N  0.48910432  0.70306760  0.14685914    -0.82300
H432        H  0.47957416  0.65942800  0.11498836     0.13500
C433        C  0.46092517  0.60817226  0.12260898     0.02900
N434        N  0.44157470  0.60063131  0.17965221    -0.80800
H435        H  0.45142883  0.64431200  0.21233554     0.18300
C436        C  0.47421254  0.58313199  0.12831153    -0.25700
C437        C  0.47802901  0.56301941  0.10765074     0.36400
C438        C  0.46854821  0.56813128  0.08039770    -0.19700
C439        C  0.45408734  0.59267280  0.07508671    -0.24900
C440        C  0.44987281  0.61251673  0.09592619     0.27700
H441        H  0.48297177  0.57981967  0.14865500     0.13500
N442        N  0.49258982  0.53803722  0.11410569    -0.82200
H443        H  0.44627497  0.59656016  0.05445907     0.18300
N444        N  0.43477785  0.63730902  0.09001124    -0.80800
H445        H  0.49733123  0.53716215  0.13518552     0.34000
H446        H  0.51147480  0.53858954  0.10361100     0.38500
H447        H  0.42810219  0.63744940  0.06944322     0.33900
H448        H  0.41700625  0.63719778  0.10230648     0.30600
H449        H  0.43686737  0.60077515  0.20075496     0.33900
H450        H  0.42283824  0.59836492  0.16910107     0.30600
H451        H  0.50853331  0.70420777  0.15629184     0.38500
H452        H  0.49266624  0.70310333  0.12553396     0.34000
C453        C  0.42969519  0.71828168  0.33290707    -0.19800
C454        C  0.41219695  0.69483604  0.33211288     0.36500
C455        C  0.39093338  0.69209224  0.35192566    -0.25700
C456        C  0.38721979  0.71191689  0.37274895     0.02900
C457        C  0.40519789  0.73473962  0.37412509     0.27700
C458        C  0.42619328  0.73763383  0.35432165    -0.24900
N459        N  0.41522448  0.67452675  0.31067127    -0.82300
H460        H  0.37698486  0.67460870  0.35099201     0.13500
C461        C  0.36353747  0.70985409  0.39219266     0.02900
N462        N  0.40156549  0.75530117  0.39526888    -0.80800
H463        H  0.43959364  0.75553545  0.35531527     0.18300
C464        C  0.36860308  0.70583783  0.42044685    -0.25700
C465        C  0.34731022  0.70849399  0.44012367     0.36400
C466        C  0.32034825  0.71580204  0.43130869    -0.19700
C467        C  0.31506816  0.71776295  0.40272001    -0.24900
C468        C  0.33639157  0.71511556  0.38314275     0.27700
H469        H  0.38950430  0.70151018  0.42721298     0.13500
N470        N  0.35321492  0.70441230  0.46896689    -0.82200
H471        H  0.29451638  0.72297106  0.39556981     0.18300
N472        N  0.33082944  0.71902826  0.35419840    -0.80800
H473        H  0.37408239  0.69965758  0.47189827     0.34000
H474        H  0.34195395  0.68717919  0.47546370     0.38500
H475        H  0.30978097  0.72262204  0.35091665     0.33900
H476        H  0.34123199  0.73686251  0.34790613     0.30600
H477        H  0.41660338  0.77071948  0.39356759     0.33900
H478        H  0.38249042  0.76480698  0.39187487     0.30600
H479        H  0.43383189  0.66420685  0.31423039     0.38500
H480        H  0.39965250  0.65962001  0.31211648     0.34000
C481        C  0.16926213  0.78925313  0.56955133    -0.19800
C482        C  0.17281037  0.81017678  0.58964050     0.36500
C483        C  0.15335836  0.81260215  0.61132332    -0.25700
C484        C  0.13042141  0.79485465  0.61283137     0.02900
C485        C  0.12615654  0.77507886  0.59193502     0.27700
C486        C  0.14551889  0.77256066  0.57056092    -0.24900
N487        N  0.19678411  0.82769930  0.58893670    -0.82300
H488        H  0.15649582  0.82773386  0.62753036     0.13500
C489        C  0.11224040  0.79479701  0.63750984     0.02900
N490        N  0.10252935  0.75704314  0.59298292    -0.80800
H491        H  0.14255003  0.75669913  0.55502219     0.18300
C492        C  0.08664144  0.80830752  0.63656964    -0.25700
C493        C  0.06666423  0.80406989  0.65738387     0.36400
C494        C  0.07254227  0.78590065  0.67939183    -0.19700
C495        C  0.09863647  0.77338435  0.68083335    -0.24900
C496        C  0.11857976  0.77771555  0.66017616     0.27700
H497        H  0.08178543  0.82111195  0.61889146     0.13500
N498        N  0.04002392  0.81698572  0.65549126    -0.82200
H499        H  0.10315441  0.75949919  0.69777301     0.18300
N500        N  0.14495351  0.76416887  0.66164417    -0.80800
H501        H  0.03908165  0.82974704  0.63811255     0.34000
H502        H  0.02531593  0.80144339  0.65245867     0.38500
H503        H  0.14650134  0.75264265  0.67982920     0.33900
H504        H  0.14605831  0.75010706  0.64528501     0.30600
H505        H  0.10219052  0.74392799  0.57580777     0.33900
H506        H  0.10466744  0.74440742  0.61034064     0.30600
H507        H  0.19521114  0.84005772  0.57132336     0.38500
H508        H  0.19680196  0.84113217  0.60587112     0.34000
C509        C  0.17512790  0.57372980  0.78086758    -0.19800
C510        C  0.17941508  0.60254516  0.77765923     0.36500
C511        C  0.15720435  0.62079797  0.78164019    -0.25700
C512        C  0.13071228  0.61106850  0.78803494     0.02900
C513        C  0.12646368  0.58267716  0.79211165     0.27700
C514        C  0.14867284  0.56432070  0.78863477    -0.24900
N515        N  0.20585121  0.61326159  0.76925158    -0.82300
H516        H  0.16018951  0.64267851  0.77822836     0.13500
C517        C  0.10711510  0.63047775  0.78673941     0.02900
N518        N  0.09940569  0.57261374  0.79915169    -0.80800
H519        H  0.14507429  0.54246216  0.79143309     0.18300
C520        C  0.08905331  0.62862282  0.76419303    -0.25700
C521        C  0.06835667  0.64838839  0.75998246     0.36400
C522        C  0.06606692  0.67094378  0.77844861    -0.19700
C523        C  0.08305245  0.67179976  0.80203749    -0.24900
C524        C  0.10359417  0.65168188  0.80636563     0.27700
H525        H  0.09160717  0.61200325  0.74941498     0.13500
N526        N  0.04976344  0.64571868  0.73690056    -0.82200
H527        H  0.08102597  0.68873037  0.81652100     0.18300
N528        N  0.12120296  0.65289708  0.83027100    -0.80800
H529        H  0.05438122  0.62813829  0.72527000     0.34000
H530        H  0.02988478  0.64276523  0.74486837     0.38500
H531        H  0.11593399  0.66971248  0.84272904     0.33900
H532        H  0.11738887  0.63520439  0.84200202     0.30600
H533        H  0.09960842  0.55117769  0.80129937     0.33900
H534        H  0.09429775  0.58071885  0.81852959     0.30600
H535        H  0.20910937  0.60708249  0.74878539     0.38500
H536        H  0.20568947  0.63480888  0.76905866     0.34000
C537        C  0.53665778  0.91922338  0.43494331    -0.19800
C538        C  0.55912028  0.92132952  0.41635882     0.36500
C539        C  0.56253513  0.90102310  0.39567429    -0.25700
C540        C  0.54419060  0.87864869  0.39361327     0.02900
C541        C  0.52334253  0.87531394  0.41368837     0.27700
C542        C  0.51968829  0.89570496  0.43398236    -0.24900
N543        N  0.57751153  0.94460230  0.41766472    -0.82300
H544        H  0.57869142  0.90331082  0.38033290     0.13500
C545        C  0.54440688  0.86072789  0.36868516     0.02900
N546        N  0.50558035  0.85149126  0.41301249    -0.80800
H547        H  0.50285393  0.89369471  0.44863115     0.18300
C548        C  0.56059384  0.83676337  0.36800073    -0.25700
C549        C  0.55784427  0.81746595  0.34623800     0.36400
C550        C  0.53801118  0.82208673  0.32527507    -0.19700
C551        C  0.52309057  0.84688490  0.32531053    -0.24900
C552        C  0.52624592  0.86633154  0.34660927     0.27700
H553        H  0.57465649  0.83268619  0.38494357     0.13500
N554        N  0.57381655  0.79254236  0.34631481    -0.82200
H555        H  0.50817981  0.85069338  0.30902747     0.18300
N556        N  0.51069496  0.89157197  0.34618165    -0.80800
H557        H  0.58653669  0.79181377  0.36378849     0.34000
H558        H  0.58702945  0.79325525  0.32923157     0.38500
H559        H  0.49878679  0.89282132  0.32818087     0.33900
H560        H  0.49676935  0.89119431  0.36268826     0.30600
H561        H  0.49175616  0.85184420  0.42962324     0.33900
H562        H  0.49359040  0.85246040  0.39506493     0.30600
H563        H  0.56612655  0.96217135  0.41260155     0.38500
H564        H  0.59305734  0.94282563  0.40275438     0.34000
C565        C  0.31632293  0.82842111  0.52673805    -0.19800
C566        C  0.34509987  0.82330087  0.52461858     0.36500
C567        C  0.36386941  0.84519017  0.52796727    -0.25700
C568        C  0.35470774  0.87213424  0.53276560     0.02900
C569        C  0.32621989  0.87729661  0.53549553     0.27700
C570        C  0.30734792  0.85541956  0.53255648    -0.24900
N571        N  0.35528119  0.79626790  0.51797565    -0.82300
H572        H  0.38581205  0.84147102  0.52547990     0.13500
C573        C  0.37519388  0.89488879  0.53215762     0.02900
N574        N  0.31660546  0.90480664  0.54083909    -0.80800
H575        H  0.28544617  0.85963709  0.53438582     0.18300
C576        C  0.37330211  0.91466793  0.51114552    -0.25700
C577        C  0.39427510  0.93431691  0.50729260     0.36400
C578        C  0.41764691  0.93408056  0.52483698    -0.19700
C579        C  0.41881630  0.91524895  0.54678491    -0.24900
C580        C  0.39783469  0.89550384  0.55053286     0.27700
H581        H  0.35586094  0.91411537  0.49707678     0.13500
N582        N  0.39211133  0.95428405  0.48544078    -0.82200
H583        H  0.43667822  0.91520289  0.56031450     0.18300
N584        N  0.39967571  0.87564805  0.57247411    -0.80800
H585        H  0.37376267  0.95150129  0.47433482     0.34000
H586        H  0.39092352  0.97377208  0.49462159     0.38500
H587        H  0.41772666  0.87870927  0.58398916     0.33900
H588        H  0.38310641  0.87914623  0.58588973     0.30600
H589        H  0.29503154  0.90519403  0.54207182     0.33900
H590        H  0.32405862  0.91069345  0.56027382     0.30600
H591        H  0.34938588  0.79189309  0.49762430     0.38500
H592        H  0.37689338  0.79596156  0.51822059     0.34000
C593        C  0.57656741  0.46862499  0.06438543    -0.19800
C594        C  0.60448599  0.47659840  0.06037675     0.36500
C595        C  0.62383475  0.47202210  0.08159679    -0.25700
C596        C  0.61594431  0.45989212  0.10670396     0.02900
C597        C  0.58867334  0.45026198  0.10999060     0.27700
C598        C  0.56928086  0.45478136  0.08888470    -0.24900
N599        N  0.61294551  0.49045606  0.03549769    -0.82300
H600        H  0.64484538  0.47943602  0.07918964     0.13500
C601        C  0.63549468  0.46054315  0.13037686     0.02900
N602        N  0.58068123  0.43650979  0.13506505    -0.80800
H603        H  0.54813884  0.44802545  0.09192742     0.18300
C604        C  0.62810024  0.47538889  0.15414762    -0.25700
C605        C  0.64703432  0.47974448  0.17575587     0.36400
C606        C  0.67404066  0.46880489  0.17361146    -0.19700
C607        C  0.68108615  0.45316240  0.15013447    -0.24900
C608        C  0.66200658  0.44874376  0.12860521     0.27700
H609        H  0.60778155  0.48468274  0.15528517     0.13500
N610        N  0.63922448  0.49623086  0.19921616    -0.82200
H611        H  0.70164234  0.44450006  0.14849021     0.18300
N612        N  0.66945502  0.43254362  0.10485362    -0.80800
H613        H  0.61852722  0.50222300  0.19775536     0.34000
H614        H  0.65096920  0.51434252  0.19863522     0.38500
H615        H  0.68972238  0.42533931  0.10670528     0.33900
H616        H  0.65663390  0.41516347  0.10458181     0.30600
H617        H  0.55982692  0.43084287  0.13432951     0.33900
H618        H  0.59201472  0.41822965  0.13626865     0.30600
H619        H  0.60365112  0.50988732  0.03545367     0.38500
H620        H  0.63428769  0.49393768  0.03554998     0.34000
C621        C  0.68114942  0.57233271  0.28035016    -0.19800
C622        C  0.68476009  0.59977295  0.27106367     0.36500
C623        C  0.66381089  0.61927996  0.27577106    -0.25700
C624        C  0.63912853  0.61205411  0.28918935     0.02900
C625        C  0.63583204  0.58494808  0.29923647     0.27700
C626        C  0.65679617  0.56538771  0.29464870    -0.24900
N627        N  0.70898066  0.60749221  0.25564140    -0.82300
H628        H  0.66614671  0.63994819  0.26763068     0.13500
C629        C  0.61601868  0.63233752  0.28994958     0.02900
N630        N  0.61099760  0.57731363  0.31366359    -0.80800
H631        H  0.65390517  0.54446348  0.30191031     0.18300
C632        C  0.59072282  0.62524292  0.27762313    -0.25700
C633        C  0.56937264  0.64462790  0.27467392     0.36400
C634        C  0.57324274  0.67186608  0.28455439    -0.19700
C635        C  0.59833348  0.67873365  0.29759447    -0.24900
C636        C  0.61967103  0.65923410  0.30052527     0.27700
H637        H  0.58809772  0.60475915  0.26904128     0.13500
N638        N  0.54436496  0.63700838  0.26045291    -0.82200
H639        H  0.60143345  0.69951150  0.30524823     0.18300
N640        N  0.64516722  0.66669789  0.31388564    -0.80800
H641        H  0.54467225  0.61615733  0.25496620     0.34000
H642        H  0.54373834  0.64809852  0.24193703     0.38500
H643        H  0.64464154  0.68724901  0.32039497     0.33900
H644        H  0.64694795  0.65467238  0.33171753     0.30600
H645        H  0.61168117  0.55660021  0.31955455     0.33900
H646        H  0.61022691  0.58889944  0.33189100     0.30600
H647        H  0.70836585  0.59689832  0.23679910     0.38500
H648        H  0.70860489  0.62848238  0.25079764     0.34000
C649        C  0.22307315  0.42907353  0.82604683    -0.19800
C650        C  0.19841440  0.41330626  0.82649233     0.36500
C651        C  0.19520248  0.39233623  0.84647007    -0.25700
C652        C  0.21619268  0.38675919  0.86567277     0.02900
C653        C  0.24025316  0.40310539  0.86592052     0.27700
C654        C  0.24343992  0.42400391  0.84619656    -0.24900
N655        N  0.17722279  0.41787195  0.80618973    -0.82300
H656        H  0.17680192  0.37956153  0.84638265     0.13500
C657        C  0.21442954  0.36219501  0.88378376     0.02900
N658        N  0.26165980  0.39791045  0.88588843    -0.80800
H659        H  0.26221801  0.43622695  0.84640146     0.18300
C660        C  0.23154955  0.33976450  0.87773376    -0.25700
C661        C  0.23398529  0.31759703  0.89612286     0.36400
C662        C  0.21882690  0.31777275  0.92109198    -0.19700
C663        C  0.20030619  0.33939125  0.92638236    -0.24900
C664        C  0.19825360  0.36191187  0.90804434     0.27700
H665        H  0.24386603  0.34010474  0.85901385     0.13500
N666        N  0.25247853  0.29523010  0.88998962    -0.82200
H667        H  0.18889052  0.33960875  0.94565411     0.18300
N668        N  0.18079089  0.38495535  0.91447713    -0.80800
H669        H  0.26238257  0.29840308  0.87104291     0.34000
H670        H  0.24053137  0.27736974  0.88780475     0.38500
H671        H  0.17034056  0.38157561  0.93309276     0.33900
H672        H  0.19355282  0.40210315  0.91762099     0.30600
H673        H  0.27822068  0.41151772  0.88312297     0.33900
H674        H  0.25349274  0.40201940  0.90547732     0.30600
H675        H  0.18533175  0.41240863  0.78691173     0.38500
H676        H  0.16037018  0.40479842  0.80967918     0.34000
C677        C  0.32625194  0.32113079  0.02508491    -0.19800
C678        C  0.32476373  0.33961541  0.04765807     0.36500
C679        C  0.34529595  0.36007202  0.05072808    -0.25700
C680        C  0.36709286  0.36225438  0.03174172     0.02900
C681        C  0.36910248  0.34331040  0.00978738     0.27700
C682        C  0.34871789  0.32296003  0.00671520    -0.24900
N683        N  0.30203817  0.33823194  0.06673730    -0.82300
H684        H  0.34387036  0.37491196  0.06743049     0.13500
C685        C  0.38628104  0.38596313  0.03316322     0.02900
N686        N  0.39166903  0.34508357  0.99049165    -0.80800
H687        H  0.35017354  0.30864589  0.98955297     0.18300
C688        C  0.41207360  0.38309834  0.04611108    -0.25700
C689        C  0.43207120  0.40422211  0.04453035     0.36400
C690        C  0.42597011  0.42838215  0.02948907    -0.19700
C691        C  0.39974818  0.43148496  0.01749677    -0.24900
C692        C  0.37986334  0.41050956  0.01910661     0.27700
H693        H  0.41688678  0.36399374  0.05662058     0.13500
N694        N  0.45899847  0.40045781  0.05649294    -0.82200
H695        H  0.39512768  0.45004235  0.00594345     0.18300
N696        N  0.35343777  0.41368408  0.00585317    -0.80800
H697        H  0.46050148  0.38097610  0.06557935     0.34000
H698        H  0.46111643  0.41476505  0.07253879     0.38500
H699        H  0.35188596  0.43313109  0.99670930     0.33900
H700        H  0.35226005  0.39932339  0.98975344     0.30600
H701        H  0.39035427  0.32931198  0.97578664     0.33900
H702        H  0.38972531  0.36360433  0.97965921     0.30600
H703        H  0.28406378  0.34322658  0.05584658     0.38500
H704        H  0.30425534  0.35311552  0.08224803     0.34000
C705        C  0.67817354  0.67461916  0.96619242    -0.19800
C706        C  0.67949812  0.64792775  0.97795348     0.36500
C707        C  0.65754388  0.62941762  0.97376537    -0.25700
C708        C  0.63452149  0.63658789  0.95772363     0.02900
C709        C  0.63373388  0.66262714  0.94486581     0.27700
C710        C  0.65543242  0.68147363  0.94943607    -0.24900
N711        N  0.70225462  0.64013825  0.99541053    -0.82300
H712        H  0.65795942  0.60949603  0.98386007     0.13500
C713        C  0.61056668  0.61734854  0.95687542     0.02900
N714        N  0.61072899  0.66991193  0.92756317    -0.80800
H715        H  0.65441069  0.70175705  0.94015509     0.18300
C716        C  0.58496649  0.62618076  0.96714250    -0.25700
C717        C  0.56314765  0.60747407  0.97162578     0.36400
C718        C  0.56697543  0.57915516  0.96538952    -0.19700
C719        C  0.59214537  0.57083998  0.95337551    -0.24900
C720        C  0.61389423  0.58957903  0.94907528     0.27700
H721        H  0.58253947  0.64753111  0.97326580     0.13500
N722        N  0.53774187  0.61711105  0.98360550    -0.82200
H723        H  0.59524389  0.54939868  0.94796447     0.18300
N724        N  0.63964275  0.58042044  0.93745377    -0.80800
H725        H  0.53794135  0.63857915  0.98556051     0.34000
H726        H  0.53662628  0.60929876  0.00371356     0.38500
H727        H  0.63888039  0.55933019  0.93303837     0.33900
H728        H  0.64229135  0.59055699  0.91857298     0.30600
H729        H  0.61322971  0.68983771  0.91973392     0.33900
H730        H  0.61080511  0.65657054  0.91056307     0.30600
H731        H  0.71956492  0.63771663  0.98271504     0.38500
H732        H  0.69869510  0.62085430  0.00437195     0.34000
C733        C  0.67218811  0.77765506  0.06933984    -0.19800
C734        C  0.67727633  0.79186021  0.09439488     0.36500
C735        C  0.65656527  0.79279451  0.11482389    -0.25700
C736        C  0.63096415  0.77962505  0.11096175     0.02900
C737        C  0.62543249  0.76644432  0.08550529     0.27700
C738        C  0.64593539  0.76593679  0.06486643    -0.24900
N739        N  0.70351970  0.80499743  0.09917265    -0.82300
H740        H  0.66061334  0.80330131  0.13420265     0.13500
C741        C  0.61096598  0.77819490  0.13440452     0.02900
N742        N  0.59946063  0.75263118  0.08113292    -0.80800
H743        H  0.64187477  0.75495016  0.04576203     0.18300
C744        C  0.58396962  0.78823529  0.13115734    -0.25700
C745        C  0.56435426  0.78611375  0.15261981     0.36400
C746        C  0.57196665  0.77380458  0.17807048    -0.19700
C747        C  0.59921175  0.76432550  0.18136892    -0.24900
C748        C  0.61860185  0.76604122  0.15977091     0.27700
H749        H  0.57817447  0.79768623  0.11171784     0.13500
N750        N  0.53680426  0.79640844  0.14858016    -0.82200
H751        H  0.60517053  0.75449451  0.20056046     0.18300
N752        N  0.64584306  0.75474784  0.16321967    -0.80800
H753        H  0.53451038  0.80442323  0.12865227     0.34000
H754        H  0.53398821  0.81284751  0.16228829     0.38500
H755        H  0.64821860  0.74651999  0.18304570     0.33900
H756        H  0.64784223  0.73831310  0.14935407     0.30600
H757        H  0.59865070  0.74396180  0.06133828     0.33900
H758        H  0.59834292  0.73625396  0.09512129     0.30600
H759        H  0.70556439  0.82086259  0.08470345     0.38500
H760        H  0.70399056  0.81427248  0.11870036     0.34000
C761        C  0.78084331  0.67806136  0.07440109    -0.19800
C762        C  0.77398216  0.68227848  0.10260361     0.36500
C763        C  0.77827206  0.66095180  0.12177923    -0.25700
C764        C  0.78894449  0.63537106  0.11358605     0.02900
C765        C  0.79693036  0.63149792  0.08579048     0.27700
C766        C  0.79275942  0.65279925  0.06653557    -0.24900
N767        N  0.76146369  0.70760178  0.11161013    -0.82300
H768        H  0.77174362  0.66377686  0.14302479     0.13500
C769        C  0.78841567  0.61204282  0.13359672     0.02900
N770        N  0.80874221  0.60572482  0.07714931    -0.80800
H771        H  0.79838816  0.64940495  0.04511922     0.18300
C772        C  0.77350033  0.58822741  0.12660143    -0.25700
C773        C  0.76927411  0.56694578  0.14579141     0.36400
C774        C  0.78048978  0.56932617  0.17278130    -0.19700
C775        C  0.79591870  0.59298025  0.17961209    -0.24900
C776        C  0.80015264  0.61425860  0.16025063     0.27700
H777        H  0.76395089  0.58679416  0.10637164     0.13500
N778        N  0.75255008  0.54355811  0.13822642    -0.82200
H779        H  0.80459587  0.59494110  0.20018258     0.18300
N780        N  0.81610271  0.63821004  0.16758680    -0.80800
H781        H  0.74645818  0.54475165  0.11751220     0.34000
H782        H  0.73443084  0.54439303  0.14998199     0.38500
H783        H  0.82319258  0.63674650  0.18796156     0.33900
H784        H  0.83361108  0.63852774  0.15492419     0.30600
H785        H  0.81328014  0.60606767  0.05601233     0.33900
H786        H  0.82756060  0.60343688  0.08752195     0.30600
H787        H  0.74166977  0.70845380  0.10295712     0.38500
H788        H  0.75872145  0.70766233  0.13305840     0.34000
C789        C  0.81800978  0.71575490  0.92218356    -0.19800
C790        C  0.81685199  0.73067878  0.89715268     0.36500
C791        C  0.83713800  0.72637854  0.87693755    -0.25700
C792        C  0.85844501  0.70729812  0.88100748     0.02900
C793        C  0.85861391  0.69103430  0.90520596     0.27700
C794        C  0.83824259  0.69534787  0.92560053    -0.24900
N795        N  0.79532922  0.75057987  0.89261491    -0.82300
H796        H  0.83700548  0.73883848  0.85835620     0.13500
C797        C  0.88178196  0.70711015  0.86103834     0.02900
N798        N  0.87985704  0.67077893  0.90920553    -0.80800
H799        H  0.83892669  0.68371019  0.94469437     0.18300
C800        C  0.90817663  0.71460826  0.87039944    -0.25700
C801        C  0.92985077  0.71996927  0.85176826     0.36400
C802        C  0.92519626  0.71703518  0.82293993    -0.19700
C803        C  0.89897108  0.70818627  0.81380753    -0.24900
C804        C  0.87725115  0.70334898  0.83249542     0.27700
H805        H  0.91141937  0.71796026  0.89232754     0.13500
N806        N  0.95603669  0.72957041  0.86212447    -0.82200
H807        H  0.89512594  0.70560305  0.79188468     0.18300
N808        N  0.85038455  0.69529280  0.82259954    -0.80800
H809        H  0.95621408  0.72960218  0.88374776     0.34000
H810        H  0.95826909  0.75013976  0.85607161     0.38500
H811        H  0.85033554  0.69370347  0.80103078     0.33900
H812        H  0.84623021  0.67558679  0.83027990     0.30600
H813        H  0.87716594  0.66069447  0.92811255     0.33900
H814        H  0.87751768  0.65585255  0.89375935     0.30600
H815        H  0.77651887  0.73992444  0.89214202     0.38500
H816        H  0.79756491  0.75995341  0.87328691     0.34000
C817        C  0.53018739  0.33116082  0.81531608    -0.19800
C818        C  0.51475840  0.35587874  0.81495264     0.36500
C819        C  0.51849367  0.37540955  0.83608838    -0.25700
C820        C  0.53719897  0.37081582  0.85766891     0.02900
C821        C  0.55345474  0.34672857  0.85761520     0.27700
C822        C  0.55002449  0.32719773  0.83618975    -0.24900
N823        N  0.49493062  0.36080887  0.79335467    -0.82300
H824        H  0.50600564  0.39392571  0.83632948     0.13500
C825        C  0.53664202  0.38993254  0.88162874     0.02900
N826        N  0.57240197  0.34168285  0.87992229    -0.80800
H827        H  0.56179075  0.30823072  0.83657935     0.18300
C828        C  0.51759523  0.38472887  0.90277967    -0.25700
C829        C  0.51294412  0.40407896  0.92389165     0.36400
C830        C  0.52762783  0.42932324  0.92381043    -0.19700
C831        C  0.54775750  0.43394235  0.90335873    -0.24900
C832        C  0.55222784  0.41452407  0.88205752     0.27700
H833        H  0.50567595  0.36578793  0.90229089     0.13500
N834        N  0.49314011  0.39829944  0.94530254    -0.82200
H835        H  0.55910700  0.45322043  0.90330704     0.18300
N836        N  0.57166273  0.42010387  0.86030172    -0.80800
H837        H  0.48396638  0.37900262  0.94221796     0.34000
H838        H  0.50391651  0.39716342  0.96401468     0.38500
H839        H  0.58112164  0.43926378  0.86338345     0.33900
H840        H  0.58731131  0.40534579  0.86154159     0.30600
H841        H  0.58241430  0.32281546  0.87709606     0.33900
H842        H  0.58770331  0.35690454  0.87916714     0.30600
H843        H  0.50579060  0.36225367  0.77472180     0.38500
H844        H  0.48508416  0.37974921  0.79627444     0.34000
C845        C  0.46707425  0.07522188  0.56891855    -0.19800
C846        C  0.47919633  0.10166420  0.56574444     0.36500
C847        C  0.47580883  0.12152934  0.58658448    -0.25700
C848        C  0.46100495  0.11561656  0.61068657     0.02900
C849        C  0.44767801  0.08988361  0.61344079     0.27700
C850        C  0.45099613  0.06982898  0.59256616    -0.24900
N851        N  0.49614974  0.10790019  0.54211564    -0.82300
H852        H  0.48596790  0.14137251  0.58468461     0.13500
C853        C  0.46245085  0.13571086  0.63375985     0.02900
N854        N  0.43068721  0.08434205  0.63719980    -0.80800
H855        H  0.44137769  0.04978450  0.59496504     0.18300
C856        C  0.44586160  0.15939532  0.63326314    -0.25700
C857        C  0.44939170  0.18050465  0.65305532     0.36400
C858        C  0.46966364  0.17758370  0.67384429    -0.19700
C859        C  0.48582501  0.15358838  0.67455280    -0.24900
C860        C  0.48289227  0.13293914  0.65435261     0.27700
H861        H  0.43064669  0.16168461  0.61698089     0.13500
N862        N  0.43265651  0.20490531  0.65204411    -0.82200
H863        H  0.50177340  0.15158983  0.69016871     0.18300
N864        N  0.50178822  0.11009110  0.65354984    -0.80800
H865        H  0.41887592  0.20392781  0.63540533     0.34000
H866        H  0.42065683  0.20534674  0.67001686     0.38500
H867        H  0.51640965  0.11175996  0.66939638     0.33900
H868        H  0.49062151  0.09206026  0.65737663     0.30600
H869        H  0.42198801  0.06464171  0.63581066     0.33900
H870        H  0.44329430  0.08431740  0.65473106     0.30600
H871        H  0.51392338  0.09574430  0.54342054     0.38500
H872        H  0.50285576  0.12839580  0.54267105     0.34000
C873        C  0.43032367  0.22279624  0.82165760    -0.19800
C874        C  0.41251722  0.19965956  0.82064601     0.36500
C875        C  0.39180492  0.19672921  0.84091858    -0.25700
C876        C  0.38913150  0.21601509  0.86235041     0.02900
C877        C  0.40811953  0.23796178  0.86450665     0.27700
C878        C  0.42832509  0.24124962  0.84400797    -0.24900
N879        N  0.41453407  0.18005922  0.79843410    -0.82300
H880        H  0.37723141  0.17978009  0.83964664     0.13500
C881        C  0.36513796  0.21449874  0.88119020     0.02900
N882        N  0.40685320  0.25676192  0.88752815    -0.80800
H883        H  0.44238537  0.25863467  0.84526534     0.18300
C884        C  0.36618334  0.19769959  0.90476919    -0.25700
C885        C  0.34494343  0.19857986  0.92472051     0.36400
C886        C  0.32244032  0.21659923  0.92072155    -0.19700
C887        C  0.32087226  0.23221069  0.89634649    -0.24900
C888        C  0.34186727  0.23122058  0.87644056     0.27700
H889        H  0.38408513  0.18473818  0.90808327     0.13500
N890        N  0.34678461  0.18229222  0.94944857    -0.82200
H891        H  0.30345569  0.24587826  0.89320605     0.18300
N892        N  0.33966079  0.24713143  0.85143613    -0.80800
H893        H  0.36454746  0.17006066  0.94904891     0.34000
H894        H  0.34905328  0.19581456  0.96615527     0.38500
H895        H  0.32090255  0.25778025  0.85090888     0.33900
H896        H  0.35519948  0.26210694  0.85154289     0.30600
H897        H  0.42277344  0.27132542  0.88632046     0.33900
H898        H  0.38837703  0.26776986  0.88626004     0.30600
H899        H  0.43313317  0.16943185  0.80096026     0.38500
H900        H  0.39885490  0.16526964  0.79996281     0.34000
C901        C  0.42585237  0.32423942  0.71052608    -0.19800
C902        C  0.43213695  0.34833167  0.69541724     0.36500
C903        C  0.41257832  0.36985193  0.69432763    -0.25700
C904        C  0.38690758  0.36733860  0.70765662     0.02900
C905        C  0.38010247  0.34261080  0.72128349     0.27700
C906        C  0.39966258  0.32136574  0.72262483    -0.24900
N907        N  0.45889264  0.35160556  0.68292862    -0.82300
H908        H  0.41769649  0.38899009  0.68398631     0.13500
C909        C  0.36838719  0.39150816  0.71020774     0.02900
N910        N  0.35369953  0.33961839  0.73461662    -0.80800
H911        H  0.39492000  0.30286475  0.73424960     0.18300
C912        C  0.34478526  0.39342750  0.69347804    -0.25700
C913        C  0.32471615  0.41391707  0.69827843     0.36400
C914        C  0.32856667  0.43291762  0.72017508    -0.19700
C915        C  0.35259564  0.43123764  0.73641376    -0.24900
C916        C  0.37249061  0.41072647  0.73169734     0.27700
H917        H  0.34155160  0.37824636  0.67733278     0.13500
N918        N  0.29997102  0.41468642  0.68182707    -0.82200
H919        H  0.35561452  0.44572439  0.75323231     0.18300
N920        N  0.39656426  0.40889090  0.74906056    -0.80800
H921        H  0.30044722  0.39939522  0.66657359     0.34000
H922        H  0.28334488  0.40991480  0.69479120     0.38500
H923        H  0.39664419  0.42473430  0.76374107     0.33900
H924        H  0.39528528  0.39042167  0.76010172     0.30600
H925        H  0.35180857  0.32005197  0.74345459     0.33900
H926        H  0.35291364  0.35376309  0.75092771     0.30600
H927        H  0.46049422  0.33698623  0.66711249     0.38500
H928        H  0.46051544  0.37091463  0.67348492     0.34000
C929        C  0.08232420  0.46953278  0.57066220    -0.19800
C930        C  0.08452916  0.44424879  0.58512359     0.36500
C931        C  0.10468869  0.44144421  0.60603279    -0.25700
C932        C  0.12296949  0.46304851  0.61220660     0.02900
C933        C  0.12171249  0.48768751  0.59700703     0.27700
C934        C  0.10155534  0.49063956  0.57640883    -0.24900
N935        N  0.06588369  0.42188554  0.57929518    -0.82300
H936        H  0.10598178  0.42250439  0.61779961     0.13500
C937        C  0.14255606  0.46070898  0.63558150     0.02900
N938        N  0.14062948  0.50984364  0.60298390    -0.80800
H939        H  0.10053010  0.50991816  0.56518077     0.18300
C940        C  0.17060784  0.45628051  0.63011796    -0.25700
C941        C  0.19054621  0.45891101  0.65114025     0.36400
C942        C  0.18217795  0.46682754  0.67809821    -0.19700
C943        C  0.15375736  0.46933301  0.68378349    -0.24900
C944        C  0.13389439  0.46649094  0.66275417     0.27700
H945        H  0.17701102  0.45165194  0.60914859     0.13500
N946        N  0.21921907  0.45413770  0.64499998    -0.82200
H947        H  0.14701395  0.47502866  0.70436672     0.18300
N948        N  0.10504500  0.47051772  0.66862365    -0.80800
H949        H  0.22180614  0.44886711  0.62418721     0.34000
H950        H  0.22550405  0.43703986  0.65651959     0.38500
H951        H  0.10206028  0.47440458  0.68968405     0.33900
H952        H  0.09863202  0.48820693  0.65812365     0.30600
H953        H  0.13719998  0.52649864  0.58973427     0.33900
H954        H  0.13643513  0.51687660  0.62299408     0.30600
H955        H  0.07054559  0.41459977  0.55948205     0.38500
H956        H  0.06943189  0.40543580  0.59276772     0.34000
C957        C  0.82409654  0.52212159  0.32237433    -0.19800
C958        C  0.83958589  0.54689878  0.32444995     0.36500
C959        C  0.85965018  0.54977720  0.34557721    -0.25700
C960        C  0.86419496  0.52875470  0.36499998     0.02900
C961        C  0.84847888  0.50433607  0.36324413     0.27700
C962        C  0.82874519  0.50130475  0.34211191    -0.24900
N963        N  0.83556162  0.56873510  0.30482169    -0.82300
H964        H  0.87179426  0.56851979  0.34697637     0.13500
C965        C  0.88605403  0.53169405  0.38663784     0.02900
N966        N  0.85296124  0.48244851  0.38275605    -0.80800
H967        H  0.81696707  0.48231635  0.34103527     0.18300
C968        C  0.87854977  0.53163679  0.41465844    -0.25700
C969        C  0.89860528  0.53040329  0.43581201     0.36400
C970        C  0.92706444  0.52860641  0.42878886    -0.19700
C971        C  0.93443051  0.53035779  0.40062080    -0.24900
C972        C  0.91430558  0.53182179  0.37957968     0.27700
H973        H  0.85679853  0.53187583  0.42000483     0.13500
N974        N  0.88994529  0.53021166  0.46425028    -0.82200
H975        H  0.95601820  0.52947229  0.39478150     0.18300
N976        N  0.92244845  0.53239620  0.35099554    -0.80800
H977        H  0.86838228  0.53060704  0.46570126     0.34000
H978        H  0.89702125  0.54850065  0.47329793     0.38500
H979        H  0.94398720  0.53254338  0.34922971     0.33900
H980        H  0.91558010  0.51409775  0.34180942     0.30600
H981        H  0.83962439  0.46591241  0.37881865     0.33900
H982        H  0.87304243  0.47509836  0.37978080     0.30600
H983        H  0.81607212  0.57721121  0.30857594     0.38500
H984        H  0.84980482  0.58462516  0.30821618     0.34000
C985        C  0.07496023  0.57203679  0.46754606    -0.19800
C986        C  0.09777339  0.57637643  0.48537660     0.36500
C987        C  0.11555282  0.59862182  0.48064576    -0.25700
C988        C  0.11135711  0.61649755  0.45840548     0.02900
C989        C  0.08994107  0.61121388  0.43935796     0.27700
C990        C  0.07190981  0.58877662  0.44401898    -0.24900
N991        N  0.10257357  0.55840567  0.50853238    -0.82300
H992        H  0.13238698  0.60263681  0.49491890     0.13500
C993        C  0.12827896  0.64186824  0.45765165     0.02900
N994        N  0.08616440  0.62903301  0.41596541    -0.80800
H995        H  0.05469953  0.58522593  0.43010962     0.18300
C996        C  0.15110756  0.64365281  0.43990608    -0.25700
C997        C  0.17125034  0.66438032  0.44361773     0.36400
C998        C  0.16824231  0.68347753  0.46554527    -0.19700
C999        C  0.14428009  0.68265098  0.48191166    -0.24900
C1000       C  0.12424448  0.66212510  0.47810202     0.27700
H1001       H  0.15405338  0.62788856  0.42429683     0.13500
N1002       N  0.19531562  0.66513105  0.42621147    -0.82200
H1003       H  0.14157675  0.69761063  0.49835309     0.18300
N1004       N  0.10038562  0.66084742  0.49579570    -0.80800
H1005       H  0.19409587  0.64989347  0.41094352     0.34000
H1006       H  0.21241729  0.66027716  0.43848786     0.38500
H1007       H  0.10062728  0.67703967  0.51008563     0.33900
H1008       H  0.08292655  0.66370583  0.48338096     0.30600
H1009       H  0.06952811  0.62225330  0.40391353     0.33900
H1010       H  0.08086487  0.64853560  0.42346760     0.30600
H1011       H  0.10702912  0.53882889  0.50066524     0.38500
H1012       H  0.11996397  0.56470554  0.51974895     0.34000
C1013       C  0.96647370  0.67809470  0.67507674    -0.19800
C1014       C  0.95186979  0.65386762  0.68217946     0.36500
C1015       C  0.95042502  0.63197565  0.66302101    -0.25700
C1016       C  0.96289171  0.63416176  0.63693329     0.02900
C1017       C  0.97625812  0.65885039  0.62937480     0.27700
C1018       C  0.97798736  0.68053038  0.64856148    -0.24900
N1019       N  0.94021040  0.65086880  0.70934529    -0.82300
H1020       H  0.94032102  0.61285010  0.66869872     0.13500
C1021       C  0.96433768  0.60979479  0.61850352     0.02900
N1022       N  0.98877782  0.66142898  0.60253010    -0.80800
H1023       H  0.98924360  0.69910389  0.64317690     0.18300
C1024       C  0.94666733  0.60791541  0.59558546    -0.25700
C1025       C  0.95031641  0.58722900  0.57543731     0.36400
C1026       C  0.97211950  0.56814333  0.57840058    -0.19700
C1027       C  0.98900665  0.56943647  0.60205466    -0.24900
C1028       C  0.98534177  0.59007505  0.62212453     0.27700
H1029       H  0.93069923  0.62330011  0.59289518     0.13500
N1030       N  0.93282669  0.58637953  0.55141598    -0.82200
H1031       H  0.00563004  0.55470188  0.60449623     0.18300
N1032       N  0.00331503  0.59158766  0.64579097    -0.80800
H1033       H  0.91773300  0.60172730  0.55252145     0.34000
H1034       H  0.94509112  0.59100243  0.53422993     0.38500
H1035       H  0.01751258  0.57537644  0.64554579     0.33900
H1036       H  0.01483995  0.60977666  0.64423488     0.30600
H1037       H  0.99752627  0.68100127  0.60010221     0.33900
H1038       H  0.00506010  0.64733786  0.60145789     0.30600
H1039       H  0.92401263  0.66498282  0.71107061     0.38500
H1040       H  0.93138640  0.63131266  0.71164925     0.34000
C1041       C  0.32610906  0.03439296  0.32246845    -0.19800
C1042       C  0.34790436  0.05321003  0.31750762     0.36500
C1043       C  0.36940178  0.05579084  0.33708282    -0.25700
C1044       C  0.36921577  0.04025509  0.36151481     0.02900
C1045       C  0.34678997  0.02255329  0.36710820     0.27700
C1046       C  0.32552644  0.01976208  0.34751544    -0.24900
N1047       N  0.34912449  0.06819269  0.29192297    -0.82300
H1048       H  0.38683163  0.06921145  0.33288662     0.13500
C1049       C  0.39385550  0.03999872  0.37973497     0.02900
N1050       N  0.34612959  0.00690548  0.39234889    -0.80800
H1051       H  0.30879261  0.00538856  0.35140472     0.18300
C1052       C  0.39442407  0.05629219  0.40370645    -0.25700
C1053       C  0.41539149  0.05290908  0.42367446     0.36400
C1054       C  0.43604580  0.03275628  0.41941310    -0.19700
C1055       C  0.43618766  0.01764809  0.39462947    -0.24900
C1056       C  0.41531883  0.02106726  0.37475308     0.27700
H1057       H  0.37778558  0.07074582  0.40739516     0.13500
N1058       N  0.41490807  0.06879164  0.44879589    -0.82200
H1059       H  0.45212565  0.00235573  0.39123082     0.18300
N1060       N  0.41532351  0.00477987  0.34987798    -0.80800
H1061       H  0.39855186  0.08283639  0.44851203     0.34000
H1062       H  0.41097484  0.05522580  0.46511559     0.38500
H1063       H  0.43277139  0.99212644  0.34915957     0.33900
H1064       H  0.39817914  0.99164139  0.35055862     0.30600
H1065       H  0.32804864  0.99511225  0.39346906     0.33900
H1066       H  0.36256072  0.99295905  0.39186323     0.30600
H1067       H  0.33276923  0.08222626  0.29190668     0.38500
H1068       H  0.36724612  0.07993902  0.29092238     0.34000
C1069       C  0.28751684  0.07249404  0.17254762    -0.19800
C1070       C  0.30102361  0.09765478  0.17880725     0.36500
C1071       C  0.30351078  0.11797881  0.15821866    -0.25700
C1072       C  0.29261147  0.11385301  0.13162508     0.02900
C1073       C  0.28005527  0.08839257  0.12506757     0.27700
C1074       C  0.27802208  0.06789337  0.14544488    -0.24900
N1075       N  0.31189244  0.10264211  0.20604093    -0.82300
H1076       H  0.31348215  0.13741924  0.16306529     0.13500
C1077       C  0.29267207  0.13691708  0.11139903     0.02900
N1078       N  0.26839193  0.08385585  0.09806905    -0.80800
H1079       H  0.26755147  0.04875489  0.14046831     0.18300
C1080       C  0.30431153  0.13306973  0.08507235    -0.25700
C1081       C  0.30182968  0.15331363  0.06441104     0.36400
C1082       C  0.28760704  0.17802104  0.07035818    -0.19700
C1083       C  0.27754080  0.18249117  0.09723951    -0.24900
C1084       C  0.27953101  0.16209287  0.11766983     0.27700
H1085       H  0.31478646  0.11389192  0.08046718     0.13500
N1086       N  0.31337524  0.14872178  0.03741025    -0.82200
H1087       H  0.26652692  0.20134835  0.10192111     0.18300
N1088       N  0.26716509  0.16638725  0.14437225    -0.80800
H1089       H  0.32293126  0.12944237  0.03641286     0.34000
H1090       H  0.32890435  0.16343886  0.03438326     0.38500
H1091       H  0.25841930  0.18603234  0.14567346     0.33900
H1092       H  0.25090877  0.15229438  0.14640359     0.30600
H1093       H  0.25999856  0.06403223  0.09655833     0.33900
H1094       H  0.25196701  0.09761009  0.09563365     0.30600
H1095       H  0.32781015  0.08849324  0.20937929     0.38500
H1096       H  0.32082152  0.12225468  0.20726328     0.34000
C1097       C  0.22265040  0.92463745  0.31628861    -0.19800
C1098       C  0.19693122  0.92251828  0.33010757     0.36500
C1099       C  0.19264414  0.90099196  0.34925317    -0.25700
C1100       C  0.21355227  0.88180992  0.35503011     0.02900
C1101       C  0.23889159  0.88352796  0.34078618     0.27700
C1102       C  0.24304656  0.90467217  0.32152269    -0.24900
N1103       N  0.17556722  0.94247605  0.32530719    -0.82300
H1104       H  0.17318797  0.89952647  0.36025060     0.13500
C1105       C  0.20984935  0.86102840  0.37728544     0.02900
N1106       N  0.26063252  0.86415703  0.34647820    -0.80800
H1107       H  0.26270618  0.90578330  0.31085707     0.18300
C1108       C  0.21236743  0.83298446  0.37086466    -0.25700
C1109       C  0.21417762  0.81294173  0.39175342     0.36400
C1110       C  0.21363961  0.82121850  0.41994956    -0.19700
C1111       C  0.20896558  0.84919511  0.42613948    -0.24900
C1112       C  0.20725489  0.86915958  0.40514664     0.27700
H1113       H  0.21398058  0.82684908  0.34936462     0.13500
N1114       N  0.21750331  0.78444840  0.38424899    -0.82200
H1115       H  0.20799199  0.85583534  0.44750880     0.18300
N1116       N  0.20417446  0.89781575  0.41207891    -0.80800
H1117       H  0.21871036  0.78217385  0.36277278     0.34000
H1118       H  0.19962928  0.77401024  0.39046022     0.38500
H1119       H  0.20238177  0.90036949  0.43347597     0.33900
H1120       H  0.22230305  0.90799317  0.40616791     0.30600
H1121       H  0.27789836  0.86809901  0.33408820     0.33900
H1122       H  0.26693183  0.86716042  0.36695277     0.30600
H1123       H  0.18263400  0.96140690  0.33291274     0.38500
H1124       H  0.15784011  0.93755275  0.33665604     0.34000
C1125       C  0.32950480  0.92971413  0.21604465    -0.19800
C1126       C  0.32372865  0.90530089  0.20117560     0.36500
C1127       C  0.34363178  0.88408043  0.20044271    -0.25700
C1128       C  0.36921865  0.88712053  0.21384561     0.02900
C1129       C  0.37552688  0.91210335  0.22734871     0.27700
C1130       C  0.35558509  0.93308377  0.22837795    -0.24900
N1131       N  0.29712131  0.90140494  0.18851607    -0.82300
H1132       H  0.33886867  0.86475441  0.19022449     0.13500
C1133       C  0.38809770  0.86316554  0.21639887     0.02900
N1134       N  0.40183713  0.91568192  0.24075285    -0.80800
H1135       H  0.36000333  0.95182737  0.23979489     0.18300
C1136       C  0.41142414  0.86106959  0.19928516    -0.25700
C1137       C  0.43112173  0.84002563  0.20331008     0.36400
C1138       C  0.42727853  0.82078585  0.22491505    -0.19700
C1139       C  0.40356163  0.82269619  0.24156750    -0.24900
C1140       C  0.38397508  0.84364466  0.23754717     0.27700
H1141       H  0.41461025  0.87634309  0.18327015     0.13500
N1142       N  0.45542256  0.83879252  0.18626532    -0.82200
H1143       H  0.40051735  0.80796920  0.25812518     0.18300
N1144       N  0.36011367  0.84550417  0.25517618    -0.80800
H1145       H  0.45503525  0.85435753  0.17133756     0.34000
H1146       H  0.47250018  0.84282351  0.19891544     0.38500
H1147       H  0.35993546  0.82938028  0.26949909     0.33900
H1148       H  0.36179973  0.86373985  0.26660291     0.30600
H1149       H  0.40334763  0.93535846  0.24948048     0.33900
H1150       H  0.40283304  0.90169207  0.25714310     0.30600
H1151       H  0.29546535  0.91564124  0.17240016     0.38500
H1152       H  0.29581718  0.88187590  0.17943078     0.34000
C1153       C  0.82362854  0.92979730  0.72141427    -0.19800
C1154       C  0.84818398  0.92947668  0.73735508     0.36500
C1155       C  0.86797868  0.90882728  0.73281545    -0.25700
C1156       C  0.86396399  0.88840425  0.71270134     0.02900
C1157       C  0.84012870  0.88931416  0.69587888     0.27700
C1158       C  0.82023071  0.91015332  0.70026194    -0.24900
N1159       N  0.85283743  0.95002338  0.75833609    -0.82300
H1160       H  0.88633913  0.90812998  0.74564840     0.13500
C1161       C  0.88397534  0.86514707  0.71144498     0.02900
N1162       N  0.83606168  0.86880190  0.67479872    -0.80800
H1163       H  0.80156799  0.91042104  0.68787400     0.18300
C1164       C  0.87538123  0.83890169  0.71998254    -0.25700
C1165       C  0.89452257  0.81745574  0.72415382     0.36400
C1166       C  0.92304763  0.82223110  0.71912564    -0.19700
C1167       C  0.93128255  0.84822259  0.70911207    -0.24900
C1168       C  0.91208851  0.86966336  0.70526734     0.27700
H1169       H  0.85378218  0.83560573  0.72494978     0.13500
N1170       N  0.88510198  0.79138679  0.73472463    -0.82200
H1171       H  0.95292612  0.85206918  0.70481783     0.18300
N1172       N  0.92107627  0.89624141  0.69569451    -0.80800
H1173       H  0.86356172  0.79111339  0.73650946     0.34000
H1174       H  0.89288016  0.78934938  0.75479708     0.38500
H1175       H  0.94240445  0.89630265  0.69220064     0.33900
H1176       H  0.91166329  0.89973063  0.67655144     0.30600
H1177       H  0.81749320  0.87224570  0.66430008     0.33900
H1178       H  0.85190940  0.87114716  0.66028801     0.30600
H1179       H  0.85445701  0.96910712  0.74844341     0.38500
H1180       H  0.87168338  0.94670931  0.76837301     0.34000
C1181       C  0.67711279  0.07714911  0.78180547    -0.19800
C1182       C  0.65162165  0.07205969  0.79532214     0.36500
C1183       C  0.63195261  0.09332303  0.79721207    -0.25700
C1184       C  0.63662174  0.11915567  0.78498353     0.02900
C1185       C  0.66235246  0.12447752  0.77229054     0.27700
C1186       C  0.68243137  0.10368077  0.77141064    -0.24900
N1187       N  0.64565210  0.04551043  0.80709898    -0.82300
H1188       H  0.61241888  0.08943476  0.80746411     0.13500
C1189       C  0.61396126  0.13989750  0.78408505     0.02900
N1190       N  0.66762537  0.15061059  0.75928951    -0.80800
H1191       H  0.70182670  0.10784570  0.76101619     0.18300
C1192       C  0.61912549  0.16705410  0.79279689    -0.25700
C1193       C  0.59928026  0.18792200  0.78940317     0.36400
C1194       C  0.57324149  0.18130404  0.77780333    -0.19700
C1195       C  0.56763803  0.15378389  0.77046919    -0.24900
C1196       C  0.58779844  0.13317600  0.77296703     0.27700
H1197       H  0.63903368  0.17211306  0.80176115     0.13500
N1198       N  0.60568755  0.21576519  0.79738907    -0.82200
H1199       H  0.54785303  0.14849113  0.76136757     0.18300
N1200       N  0.58211725  0.10570528  0.76324133    -0.80800
H1201       H  0.62591902  0.21719448  0.80488762     0.34000
H1202       H  0.59264837  0.22098144  0.81380604     0.38500
H1203       H  0.56188049  0.10415772  0.75577962     0.33900
H1204       H  0.59516982  0.10188250  0.74644680     0.30600
H1205       H  0.68761103  0.15128264  0.75109069     0.33900
H1206       H  0.65402962  0.15242879  0.74258026     0.30600
H1207       H  0.64145538  0.03200873  0.79076048     0.38500
H1208       H  0.62749502  0.04628521  0.81879792     0.34000
C1209       C  0.56442496  0.96985962  0.58152818    -0.19800
C1210       C  0.56406664  0.98764910  0.60470472     0.36500
C1211       C  0.58452729  0.98500541  0.62513945    -0.25700
C1212       C  0.60531950  0.96512674  0.62276423     0.02900
C1213       C  0.60496855  0.94646953  0.60039755     0.27700
C1214       C  0.58461475  0.94920191  0.57977670    -0.24900
N1215       N  0.54382515  0.00923447  0.60668609    -0.82300
H1216       H  0.58505017  0.99930406  0.64237773     0.13500
C1217       C  0.62890243  0.96629579  0.64219537     0.02900
N1218       N  0.62529872  0.92496723  0.59870852    -0.80800
H1219       H  0.58474985  0.93551234  0.56205166     0.18300
C1220       C  0.62720028  0.95301596  0.66785664    -0.25700
C1221       C  0.64863478  0.95559780  0.68742962     0.36400
C1222       C  0.67219671  0.97163277  0.68096695    -0.19700
C1223       C  0.67393541  0.98448672  0.65503070    -0.24900
C1224       C  0.65236536  0.98228510  0.63572731     0.27700
H1225       H  0.60893519  0.94100213  0.67273189     0.13500
N1226       N  0.64654142  0.94213127  0.71380506    -0.82200
H1227       H  0.69170366  0.99726593  0.65025384     0.18300
N1228       N  0.65357529  0.99722814  0.61008037    -0.80800
H1229       H  0.62788951  0.93130576  0.71532012     0.34000
H1230       H  0.66233272  0.92749600  0.71485458     0.38500
H1231       H  0.67181321  0.00877894  0.60888589     0.33900
H1232       H  0.65435011  0.98288941  0.59397126     0.30600
H1233       H  0.62186495  0.91272754  0.58121636     0.33900
H1234       H  0.64466143  0.93416238  0.59608004     0.30600
H1235       H  0.54748499  0.02307759  0.59053362     0.38500
H1236       H  0.54635285  0.02036163  0.62505434     0.34000
C1237       C  0.71616502  0.93213576  0.82819302    -0.19800
C1238       C  0.73255042  0.93183780  0.85235884     0.36500
C1239       C  0.72966115  0.91018397  0.87122733    -0.25700
C1240       C  0.71069158  0.88884158  0.86659620     0.02900
C1241       C  0.69279359  0.89008783  0.84358234     0.27700
C1242       C  0.69552962  0.91201495  0.82459949    -0.24900
N1243       N  0.75256535  0.95326836  0.85727938    -0.82300
H1244       H  0.74303664  0.90932115  0.88919744     0.13500
C1245       C  0.71237667  0.86429519  0.88472512     0.02900
N1246       N  0.67279507  0.86861099  0.83903953    -0.80800
H1247       H  0.68278047  0.91244701  0.80617646     0.18300
C1248       C  0.69169644  0.85893225  0.90433381    -0.25700
C1249       C  0.69525206  0.83827067  0.92456527     0.36400
C1250       C  0.71990531  0.82261200  0.92482815    -0.19700
C1251       C  0.73992069  0.82742595  0.90430815    -0.24900
C1252       C  0.73639814  0.84797445  0.88431384     0.27700
H1253       H  0.67335468  0.87169863  0.90459376     0.13500
N1254       N  0.67447353  0.83395542  0.94534584    -0.82200
H1255       H  0.75865516  0.81522823  0.90399216     0.18300
N1256       N  0.75746114  0.85288585  0.86389941    -0.80800
H1257       H  0.65761634  0.84699222  0.94203432     0.34000
H1258       H  0.68302096  0.83964009  0.96438813     0.38500
H1259       H  0.77403709  0.83936195  0.86659220     0.33900
H1260       H  0.74892473  0.84847333  0.84451891     0.30600
H1261       H  0.66123645  0.87263875  0.82122631     0.33900
H1262       H  0.68360041  0.85034359  0.83532061     0.30600
H1263       H  0.74174777  0.97174133  0.85974320     0.38500
H1264       H  0.76316257  0.94984554  0.87580162     0.34000
C1265       C  0.57820859  0.06898508  0.47635258    -0.19800
C1266       C  0.60486890  0.06182718  0.46679278     0.36500
C1267       C  0.62551982  0.08223659  0.46513494    -0.25700
C1268       C  0.62030316  0.10956967  0.47313651     0.02900
C1269       C  0.59365249  0.11673602  0.48260359     0.27700
C1270       C  0.57288599  0.09650953  0.48373800    -0.24900
N1271       N  0.61090989  0.03397398  0.45867187    -0.82300
H1272       H  0.64582422  0.07681846  0.45744495     0.13500
C1273       C  0.64285870  0.13050431  0.47170120     0.02900
N1274       N  0.58792705  0.14439677  0.49164990    -0.80800
H1275       H  0.55263960  0.10215151  0.49143826     0.18300
C1276       C  0.63812911  0.15546552  0.45781672    -0.25700
C1277       C  0.65788573  0.17676055  0.45797580     0.36400
C1278       C  0.68322574  0.17283909  0.47190528    -0.19700
C1279       C  0.68864561  0.14720772  0.48429159    -0.24900
C1280       C  0.66862680  0.12617234  0.48472068     0.27700
H1281       H  0.61867380  0.15850563  0.44715517     0.13500
N1282       N  0.65219516  0.20237471  0.44422959    -0.82200
H1283       H  0.70802275  0.14407250  0.49507520     0.18300
N1284       N  0.67401878  0.10087479  0.49919852    -0.80800
H1285       H  0.63251323  0.20201530  0.43529078     0.34000
H1286       H  0.66632786  0.20435419  0.42799639     0.38500
H1287       H  0.69399062  0.10091960  0.50748029     0.33900
H1288       H  0.66038634  0.09983780  0.51593796     0.30600
H1289       H  0.56730588  0.14631286  0.49781742     0.33900
H1290       H  0.60002554  0.14825384  0.50916170     0.30600
H1291       H  0.59892250  0.02947785  0.44123381     0.38500
H1292       H  0.63156743  0.03211303  0.45261859     0.34000
C1293       C  0.82865399  0.31987998  0.52955734    -0.19800
C1294       C  0.82803696  0.33875299  0.55180928     0.36500
C1295       C  0.84922115  0.35861676  0.55422407    -0.25700
C1296       C  0.87073728  0.35998292  0.53478084     0.02900
C1297       C  0.87179110  0.34060541  0.51310268     0.27700
C1298       C  0.85092728  0.32065997  0.51089221    -0.24900
N1299       N  0.80553333  0.33839676  0.57119446    -0.82300
H1300       H  0.84861562  0.37357243  0.57087405     0.13500
C1301       C  0.89138689  0.38255868  0.53625047     0.02900
N1302       N  0.89359583  0.34181430  0.49291356    -0.80800
H1303       H  0.85162954  0.30607752  0.49390452     0.18300
C1304       C  0.91932943  0.37608844  0.54002950    -0.25700
C1305       C  0.93993182  0.39651100  0.53849070     0.36400
C1306       C  0.93236002  0.42414686  0.53275328    -0.19700
C1307       C  0.90409401  0.43063894  0.53029078    -0.24900
C1308       C  0.88360299  0.41012404  0.53170258     0.27700
H1309       H  0.92509186  0.35482670  0.54365019     0.13500
N1310       N  0.96843626  0.38905166  0.54221617    -0.82200
H1311       H  0.89790801  0.45162926  0.52594557     0.18300
N1312       N  0.85501062  0.41700029  0.52747647    -0.80800
H1313       H  0.97039648  0.36783494  0.54539482     0.34000
H1314       H  0.97536345  0.39862780  0.56033144     0.38500
H1315       H  0.85271576  0.43820597  0.52446441     0.33900
H1316       H  0.84855554  0.40744692  0.50917267     0.30600
H1317       H  0.89145943  0.32595165  0.47840034     0.33900
H1318       H  0.89147828  0.36031165  0.48205794     0.30600
H1319       H  0.78758290  0.34378195  0.56045522     0.38500
H1320       H  0.80842005  0.35346589  0.58641316     0.34000
C1321       C  0.71477971  0.42045087  0.31510929    -0.19800
C1322       C  0.69687306  0.42524242  0.33764040     0.36500
C1323       C  0.69475111  0.40529014  0.35871748    -0.25700
C1324       C  0.70971263  0.38059287  0.35725438     0.02900
C1325       C  0.72598438  0.37497877  0.33377271     0.27700
C1326       C  0.72843952  0.39501652  0.31299890    -0.24900
N1327       N  0.68248605  0.45101013  0.34001492    -0.82300
H1328       H  0.68231792  0.40944330  0.37687575     0.13500
C1329       C  0.71129338  0.36238061  0.38177514     0.02900
N1330       N  0.74062804  0.34930223  0.33156967    -0.80800
H1331       H  0.74196740  0.39122605  0.29554219     0.18300
C1332       C  0.69363880  0.33954625  0.38415508    -0.25700
C1333       C  0.69683580  0.32040322  0.40588260     0.36400
C1334       C  0.71856321  0.32403419  0.42519359    -0.19700
C1335       C  0.73540989  0.34763225  0.42319779    -0.24900
C1336       C  0.73199626  0.36679205  0.40176757     0.27700
H1337       H  0.67775431  0.33636179  0.36866478     0.13500
N1338       N  0.67900893  0.29672982  0.40750003    -0.82200
H1339       H  0.75184543  0.35082763  0.43810577     0.18300
N1340       N  0.74979509  0.39052068  0.39991357    -0.80800
H1341       H  0.66524986  0.29638579  0.39081919     0.34000
H1342       H  0.66688943  0.29895862  0.42525100     0.38500
H1343       H  0.76366720  0.39101130  0.41649406     0.33900
H1344       H  0.76172093  0.38850903  0.38200533     0.30600
H1345       H  0.75133444  0.34824054  0.31281988     0.33900
H1346       H  0.75555261  0.34882333  0.34719773     0.30600
H1347       H  0.66794780  0.45177150  0.32403670     0.38500
H1348       H  0.67126455  0.45174385  0.35847504     0.34000
C1349       C  0.67523215  0.28664578  0.56746836    -0.19800
C1350       C  0.64691918  0.28072771  0.56240717     0.36500
C1351       C  0.62733812  0.28541440  0.58334186    -0.25700
C1352       C  0.63520537  0.29543023  0.60937313     0.02900
C1353       C  0.66302799  0.30282631  0.61401791     0.27700
C1354       C  0.68271190  0.29839420  0.59306632    -0.24900
N1355       N  0.63814222  0.26860325  0.53669332    -0.82300
H1356       H  0.60600637  0.27944091  0.57993045     0.13500
C1357       C  0.61485513  0.29420827  0.63240018     0.02900
N1358       N  0.67125642  0.31409460  0.64028560    -0.80800
H1359       H  0.70416686  0.30342559  0.59710616     0.18300
C1360       C  0.62107864  0.27783503  0.65544375    -0.25700
C1361       C  0.60126061  0.27250079  0.67593735     0.36400
C1362       C  0.57456474  0.28402895  0.67350163    -0.19700
C1363       C  0.56845399  0.30090439  0.65073577    -0.24900
C1364       C  0.58843342  0.30631783  0.63026472     0.27700
H1365       H  0.64113825  0.26803197  0.65676100     0.13500
N1366       N  0.60779617  0.25436484  0.69851328    -0.82200
H1367       H  0.54802314  0.30982734  0.64890916     0.18300
N1368       N  0.58197231  0.32379177  0.60718737    -0.80800
H1369       H  0.62834726  0.24784181  0.69735042     0.34000
H1370       H  0.59554739  0.23669790  0.69638067     0.38500
H1371       H  0.56166551  0.33098364  0.60862514     0.33900
H1372       H  0.59485039  0.34108860  0.60840319     0.30600
H1373       H  0.69247459  0.31824864  0.64050689     0.33900
H1374       H  0.66122164  0.33300655  0.64267074     0.30600
H1375       H  0.64575695  0.24845928  0.53612089     0.38500
H1376       H  0.61660312  0.26689578  0.53592694     0.34000
C1377       C  0.77947548  0.07168692  0.67533159    -0.19800
C1378       C  0.79312050  0.09682607  0.68135476     0.36500
C1379       C  0.79426054  0.11763295  0.66113915    -0.25700
C1380       C  0.78257753  0.11366675  0.63490664     0.02900
C1381       C  0.77052053  0.08803762  0.62822862     0.27700
C1382       C  0.76922179  0.06724758  0.64845061    -0.24900
N1383       N  0.80556657  0.10123749  0.70800364    -0.82300
H1384       H  0.80392123  0.13723698  0.66595036     0.13500
C1385       C  0.78171403  0.13703323  0.61514742     0.02900
N1386       N  0.75883124  0.08358628  0.60123919    -0.80800
H1387       H  0.75885936  0.04802204  0.64358004     0.18300
C1388       C  0.79788372  0.13622039  0.59112903    -0.25700
C1389       C  0.79661939  0.15755176  0.57146210     0.36400
C1390       C  0.77863724  0.18008848  0.57587680    -0.19700
C1391       C  0.76302957  0.18115468  0.60037086    -0.24900
C1392       C  0.76418020  0.15971519  0.61990174     0.27700
H1393       H  0.81141206  0.11878307  0.58769230     0.13500
N1394       N  0.81352067  0.15640813  0.54704548    -0.82200
H1395       H  0.74897145  0.19818477  0.60372955     0.18300
N1396       N  0.74710015  0.16048499  0.64422250    -0.80800
H1397       H  0.82544929  0.13847022  0.54688273     0.34000
H1398       H  0.82737307  0.17296446  0.54793994     0.38500
H1399       H  0.73535032  0.17853544  0.64466922     0.33900
H1400       H  0.73307549  0.14409781  0.64289965     0.30600
H1401       H  0.75083688  0.06360999  0.59958949     0.33900
H1402       H  0.74211511  0.09702620  0.59903477     0.30600
H1403       H  0.82161676  0.08699274  0.71009260     0.38500
H1404       H  0.81462706  0.12079620  0.70908225     0.34000
C1405       C  0.18226311  0.07630127  0.27646087    -0.19800
C1406       C  0.15729802  0.07067120  0.29062902     0.36500
C1407       C  0.13677832  0.09115891  0.29230203    -0.25700
C1408       C  0.14051489  0.11710733  0.28001403     0.02900
C1409       C  0.16570342  0.12299251  0.26650316     0.27700
C1410       C  0.18637131  0.10270512  0.26519579    -0.24900
N1411       N  0.15279223  0.04421108  0.30319782    -0.82300
H1412       H  0.11760236  0.08680435  0.30302908     0.13500
C1413       C  0.11758531  0.13759742  0.28046526     0.02900
N1414       N  0.16985030  0.14924338  0.25334497    -0.80800
H1415       H  0.20532116  0.10717780  0.25412574     0.18300
C1416       C  0.12238377  0.16416087  0.29103068    -0.25700
C1417       C  0.10195721  0.18474239  0.28968831     0.36400
C1418       C  0.07599981  0.17856571  0.27767605    -0.19700
C1419       C  0.07080058  0.15156191  0.26841145    -0.24900
C1420       C  0.09136824  0.13116027  0.26932665     0.27700
H1421       H  0.14235224  0.16894264  0.30001895     0.13500
N1422       N  0.10757631  0.21186310  0.30033617    -0.82200
H1423       H  0.05102142  0.14665687  0.25907991     0.18300
N1424       N  0.08603975  0.10422324  0.25804899    -0.80800
H1425       H  0.12769431  0.21304853  0.30817093     0.34000
H1426       H  0.09426069  0.21517837  0.31703285     0.38500
H1427       H  0.06573810  0.10279626  0.25074506     0.33900
H1428       H  0.09894594  0.10163435  0.24090645     0.30600
H1429       H  0.18948669  0.15034047  0.24438244     0.33900
H1430       H  0.15558223  0.15075263  0.23717140     0.30600
H1431       H  0.16731347  0.04203481  0.31906356     0.38500
H1432       H  0.13330530  0.04334869  0.31250503     0.34000
C1433       C  0.81692351  0.41912150  0.21113226    -0.19800
C1434       C  0.83624809  0.42066334  0.18926964     0.36500
C1435       C  0.85720696  0.40052680  0.18740209    -0.25700
C1436       C  0.85858463  0.37887817  0.20659180     0.02900
C1437       C  0.83778191  0.37602152  0.22667628     0.27700
C1438       C  0.81723599  0.39614460  0.22876541    -0.24900
N1439       N  0.83567907  0.44341645  0.17029779    -0.82300
H1440       H  0.87323679  0.40242628  0.17187625     0.13500
C1441       C  0.88361134  0.36152178  0.20851149     0.02900
N1442       N  0.83853266  0.35337825  0.24581525    -0.80800
H1443       H  0.80196767  0.39447440  0.24508460     0.18300
C1444       C  0.90242615  0.36726761  0.22977564    -0.25700
C1445       C  0.92465640  0.34960866  0.23529096     0.36400
C1446       C  0.92815697  0.32555554  0.21912206    -0.19700
C1447       C  0.90998397  0.32049578  0.19694254    -0.24900
C1448       C  0.88744733  0.33812458  0.19171131     0.27700
H1449       H  0.89925235  0.38531965  0.24261601     0.13500
N1450       N  0.94354489  0.35591479  0.25740914    -0.82200
H1451       H  0.91260156  0.30208498  0.18452251     0.18300
N1452       N  0.86806421  0.33199751  0.17001564    -0.80800
H1453       H  0.93783941  0.37413747  0.26744534     0.34000
H1454       H  0.96294142  0.35954622  0.24858939     0.38500
H1455       H  0.87384282  0.31403948  0.15955743     0.33900
H1456       H  0.84895756  0.32787332  0.17924728     0.30600
H1457       H  0.82200463  0.35451466  0.25969569     0.33900
H1458       H  0.83577278  0.33524145  0.23443448     0.30600
H1459       H  0.81757801  0.44162228  0.15860625     0.38500
H1460       H  0.85207200  0.44201311  0.15628414     0.34000
C1461       C  0.07244071  0.27879540  0.17188771    -0.19800
C1462       C  0.06898392  0.26598115  0.14575271     0.36500
C1463       C  0.09016396  0.26795834  0.12596120    -0.25700
C1464       C  0.11463522  0.28233047  0.13168682     0.02900
C1465       C  0.11756271  0.29637691  0.15705446     0.27700
C1466       C  0.09655734  0.29416807  0.17706518    -0.24900
N1467       N  0.04458206  0.25004081  0.13975862    -0.82300
H1468       H  0.08804029  0.25741665  0.10629220     0.13500
C1469       C  0.13756083  0.28095648  0.11146650     0.02900
N1470       N  0.14151961  0.31325379  0.16215977    -0.80800
H1471       H  0.09908253  0.30434075  0.19687222     0.18300
C1472       C  0.13683380  0.29754558  0.08774975    -0.25700
C1473       C  0.15742028  0.29535672  0.06727252     0.36400
C1474       C  0.17925619  0.27646059  0.07090561    -0.19700
C1475       C  0.18001444  0.26008251  0.09481197    -0.24900
C1476       C  0.15907121  0.26170127  0.11485424     0.27700
H1477       H  0.11993695  0.31191654  0.08507262     0.13500
N1478       N  0.15622680  0.31214034  0.04284042    -0.82200
H1479       H  0.19635884  0.24503371  0.09722401     0.18300
N1480       N  0.15865586  0.24275067  0.13771932    -0.80800
H1481       H  0.13878479  0.32481533  0.04327774     0.34000
H1482       H  0.17345379  0.32519408  0.04308867     0.38500
H1483       H  0.17529368  0.22910759  0.13648306     0.33900
H1484       H  0.16138164  0.25395532  0.15597268     0.30600
H1485       H  0.14013429  0.32269242  0.18154768     0.33900
H1486       H  0.15889365  0.30054613  0.16284127     0.30600
H1487       H  0.04468369  0.23282574  0.15274018     0.38500
H1488       H  0.04513050  0.24248773  0.11949992     0.34000
C1489       C  0.03955944  0.32742308  0.31943372    -0.19800
C1490       C  0.02900323  0.35428048  0.31676679     0.36500
C1491       C  0.03266432  0.37341572  0.33816967    -0.25700
C1492       C  0.04654253  0.36621285  0.36257776     0.02900
C1493       C  0.05826076  0.33963827  0.36488897     0.27700
C1494       C  0.05479134  0.32048143  0.34313074    -0.24900
N1495       N  0.01397933  0.36198723  0.29244912    -0.82300
H1496       H  0.02345376  0.39365862  0.33621080     0.13500
C1497       C  0.04595846  0.38592519  0.38622002     0.02900
N1498       N  0.07293686  0.33204987  0.38956501    -0.80800
H1499       H  0.06271104  0.29972271  0.34527019     0.18300
C1500       C  0.03286955  0.37799784  0.41083950    -0.25700
C1501       C  0.02752170  0.39719667  0.43199403     0.36400
C1502       C  0.03585059  0.42501382  0.42863685    -0.19700
C1503       C  0.04991495  0.43264536  0.40438694    -0.24900
C1504       C  0.05514797  0.41338267  0.38323232     0.27700
H1505       H  0.02540797  0.35702653  0.41291973     0.13500
N1506       N  0.01245329  0.38874415  0.45619322    -0.82200
H1507       H  0.05655929  0.45382244  0.40177464     0.18300
N1508       N  0.06931968  0.42165550  0.35846768    -0.80800
H1509       H  0.00824417  0.36760706  0.45557005     0.34000
H1510       H  0.99331227  0.39871256  0.45581503     0.38500
H1511       H  0.07460096  0.44254389  0.35938625     0.33900
H1512       H  0.08787328  0.41068350  0.35757834     0.30600
H1513       H  0.08006477  0.31177459  0.38809964     0.33900
H1514       H  0.09042557  0.34467931  0.39094708     0.30600
H1515       H  0.99421994  0.36828110  0.29847733     0.38500
H1516       H  0.02400356  0.37888171  0.28351700     0.34000
C1517       C  0.93353795  0.22271588  0.32712996    -0.19800
C1518       C  0.91161871  0.20396269  0.32261794     0.36500
C1519       C  0.89076277  0.20131904  0.34274395    -0.25700
C1520       C  0.89170134  0.21671244  0.36729234     0.02900
C1521       C  0.91412272  0.23463406  0.37226791     0.27700
C1522       C  0.93482074  0.23744953  0.35211904    -0.24900
N1523       N  0.90965193  0.18904571  0.29698405    -0.82300
H1524       H  0.87329531  0.18779387  0.33900499     0.13500
C1525       C  0.86782015  0.21612215  0.38641979     0.02900
N1526       N  0.91525690  0.25057176  0.39734540    -0.80800
H1527       H  0.95164932  0.25184847  0.35554655     0.18300
C1528       C  0.87029074  0.20332849  0.41230334    -0.25700
C1529       C  0.84897733  0.20525661  0.43206146     0.36400
C1530       C  0.82491874  0.22037231  0.42564632    -0.19700
C1531       C  0.82216239  0.23226003  0.39934548    -0.24900
C1532       C  0.84334346  0.23024981  0.37963917     0.27700
H1533       H  0.88924319  0.19259436  0.41735748     0.13500
N1534       N  0.85220046  0.19302039  0.45892097    -0.82200
H1535       H  0.80369339  0.24389564  0.39448329     0.18300
N1536       N  0.84048278  0.24319393  0.35305693    -0.80800
H1537       H  0.87102651  0.18255626  0.46020527     0.34000
H1538       H  0.85311897  0.20899582  0.47343070     0.38500
H1539       H  0.82111145  0.25253330  0.35124434     0.33900
H1540       H  0.85516239  0.25900065  0.35188124     0.30600
H1541       H  0.93320558  0.26261380  0.39789738     0.33900
H1542       H  0.89861089  0.26427460  0.39711597     0.30600
H1543       H  0.92585268  0.17483965  0.29652551     0.38500
H1544       H  0.89139787  0.17748303  0.29631931     0.34000
C1545       C  0.91907719  0.92912820  0.03612047    -0.19800
C1546       C  0.89304866  0.93004647  0.02291448     0.36500
C1547       C  0.87405075  0.90858166  0.02717794    -0.25700
C1548       C  0.88063799  0.88620934  0.04417335     0.02900
C1549       C  0.90594961  0.88592906  0.05857188     0.27700
C1550       C  0.92490811  0.90765181  0.05464994    -0.24900
N1551       N  0.88631994  0.95245898  0.00470399    -0.82300
H1552       H  0.85449858  0.90861934  0.01621736     0.13500
C1553       C  0.86221793  0.86187530  0.04358004     0.02900
N1554       N  0.91264503  0.86307808  0.07618783    -0.80800
H1555       H  0.94486526  0.90701369  0.06480918     0.18300
C1556       C  0.86929798  0.83985721  0.02624977    -0.25700
C1557       C  0.85043780  0.81847931  0.02091584     0.36400
C1558       C  0.82401286  0.81917892  0.03330406    -0.19700
C1559       C  0.81763004  0.84030951  0.05210862    -0.24900
C1560       C  0.83647755  0.86189645  0.05716500     0.27700
H1561       H  0.88918452  0.84001141  0.01592891     0.13500
N1562       N  0.85778077  0.79633066  0.00256112    -0.82200
H1563       H  0.79739586  0.84074688  0.06169895     0.18300
N1564       N  0.82928941  0.88433862  0.07517292    -0.80800
H1565       H  0.87784930  0.79904263  0.99500357     0.34000
H1566       H  0.85793737  0.77815802  0.01415671     0.38500
H1567       H  0.80949528  0.88140716  0.08334790     0.33900
H1568       H  0.84300680  0.88400697  0.09188392     0.30600
H1569       H  0.93217416  0.86585058  0.08505327     0.33900
H1570       H  0.89842458  0.86298118  0.09246344     0.30600
H1571       H  0.88579559  0.97046726  0.01659414     0.38500
H1572       H  0.86651295  0.94987243  0.99641823     0.34000
C1573       C  0.17765317  0.17227791  0.97405585    -0.19800
C1574       C  0.18153477  0.14488215  0.98342643     0.36500
C1575       C  0.15949426  0.12594680  0.98191326    -0.25700
C1576       C  0.13356593  0.13358024  0.97140649     0.02900
C1577       C  0.12973276  0.16075148  0.96178267     0.27700
C1578       C  0.15169679  0.17976070  0.96332786    -0.24900
N1579       N  0.20742388  0.13651662  0.99535945    -0.82300
H1580       H  0.16229157  0.10526859  0.98985241     0.13500
C1581       C  0.11037291  0.11323161  0.97192533     0.02900
N1582       N  0.10351292  0.16896047  0.95051364    -0.80800
H1583       H  0.14844534  0.20064502  0.95616003     0.18300
C1584       C  0.08554815  0.12022142  0.98518521    -0.25700
C1585       C  0.06385350  0.10106474  0.98790642     0.36400
C1586       C  0.06707059  0.07404979  0.97721326    -0.19700
C1587       C  0.09177858  0.06724996  0.96354769    -0.24900
C1588       C  0.11328493  0.08658686  0.96053784     0.27700
H1589       H  0.08342755  0.14051461  0.99430710     0.13500
N1590       N  0.03905182  0.10878386  0.00234807    -0.82200
H1591       H  0.09436377  0.04669795  0.95516429     0.18300
N1592       N  0.13810829  0.07927134  0.94596977    -0.80800
H1593       H  0.03974519  0.12954600  0.00813900     0.34000
H1594       H  0.03831147  0.09742402  0.02069346     0.38500
H1595       H  0.13706491  0.05889839  0.93896118     0.33900
H1596       H  0.13931489  0.09173698  0.92839370     0.30600
H1597       H  0.10398952  0.18966568  0.94456254     0.33900
H1598       H  0.10016204  0.15742694  0.93254118     0.30600
H1599       H  0.20987162  0.14726645  0.01396190     0.38500
H1600       H  0.20700834  0.11558697  0.00047856     0.34000
C1601       C  0.03169325  0.82067951  0.82564186    -0.19800
C1602       C  0.02415209  0.81594662  0.85359577     0.36500
C1603       C  0.02668232  0.83737361  0.87303066    -0.25700
C1604       C  0.03701949  0.86327488  0.86556902     0.02900
C1605       C  0.04653080  0.86755547  0.83837543     0.27700
C1606       C  0.04366455  0.84625785  0.81862340    -0.24900
N1607       N  0.01232451  0.79004795  0.86195514    -0.82300
H1608       H  0.01943946  0.83425854  0.89400764     0.13500
C1609       C  0.03345900  0.88641818  0.88541767     0.02900
N1610       N  0.05822515  0.89372119  0.83075145    -0.80800
H1611       H  0.04994730  0.84997374  0.79744985     0.18300
C1612       C  0.05574084  0.89629489  0.90121334    -0.25700
C1613       C  0.05167787  0.91619978  0.92224615     0.36400
C1614       C  0.02474686  0.92661005  0.92721806    -0.19700
C1615       C  0.00279918  0.91698642  0.91063885    -0.24900
C1616       C  0.00685671  0.89713374  0.88996647     0.27700
H1617       H  0.07613795  0.88781835  0.89769377     0.13500
N1618       N  0.07463686  0.92526014  0.93882400    -0.82200
H1619       H  0.98212615  0.92490485  0.91380666     0.18300
N1620       N  0.98388428  0.88733139  0.87377672    -0.80800
H1621       H  0.09295702  0.91604189  0.93209483     0.34000
H1622       H  0.07127026  0.91825775  0.95898767     0.38500
H1623       H  0.96554488  0.89691046  0.87991599     0.33900
H1624       H  0.98737440  0.89314440  0.85325874     0.30600
H1625       H  0.06445763  0.89346744  0.81005069     0.33900
H1626       H  0.04265066  0.90853394  0.83235425     0.30600
H1627       H  0.02809079  0.77536750  0.86129644     0.38500
H1628       H  0.00578758  0.79086409  0.88254873     0.34000
C1629       C  0.07127717  0.96631618  0.07295109    -0.19800
C1630       C  0.06620001  0.95528735  0.09955340     0.36500
C1631       C  0.08790898  0.95406561  0.11898649    -0.25700
C1632       C  0.11451426  0.96396241  0.11265484     0.02900
C1633       C  0.11986336  0.97369633  0.08566470     0.27700
C1634       C  0.09838489  0.97432466  0.06609604    -0.24900
N1635       N  0.03903710  0.94573401  0.10692690    -0.82300
H1636       H  0.08391624  0.94592778  0.13945587     0.13500
C1637       C  0.13609355  0.96561918  0.13478503     0.02900
N1638       N  0.14678807  0.98409957  0.07852128    -0.80800
H1639       H  0.10259777  0.98274600  0.04579206     0.18300
C1640       C  0.16253916  0.95458828  0.13012729    -0.25700
C1641       C  0.18404192  0.95791012  0.14955431     0.36400
C1642       C  0.17884816  0.97199504  0.17465675    -0.19700
C1643       C  0.15207178  0.98206185  0.17970319    -0.24900
C1644       C  0.13086612  0.97948715  0.15995018     0.27700
H1645       H  0.16652376  0.94361545  0.11101800     0.13500
N1646       N  0.21106967  0.94710023  0.14376638    -0.82200
H1647       H  0.14791270  0.99313068  0.19872095     0.18300
N1648       N  0.10430239  0.99175336  0.16500426    -0.80800
H1649       H  0.21153322  0.93779744  0.12425266     0.34000
H1650       H  0.21503001  0.93155666  0.15817259     0.38500
H1651       H  0.10378531  0.00111123  0.18448802     0.33900
H1652       H  0.10155140  0.00746214  0.15048869     0.30600
H1653       H  0.14736696  0.99030607  0.05783162     0.33900
H1654       H  0.15036884  0.00175197  0.09043406     0.30600
H1655       H  0.03445700  0.92878029  0.09434758     0.38500
H1656       H  0.03873664  0.93862963  0.12732947     0.34000
C1657       C  0.81928238  0.03521699  0.82610385    -0.19800
C1658       C  0.81538256  0.02515851  0.85317529     0.36500
C1659       C  0.83640989  0.02858696  0.87290173    -0.25700
C1660       C  0.86131805  0.04177252  0.86608854     0.02900
C1661       C  0.86478832  0.05284334  0.83931106     0.27700
C1662       C  0.84357121  0.04962555  0.81956235    -0.24900
N1663       N  0.79026949  0.01092110  0.86027674    -0.82300
H1664       H  0.83381534  0.01999293  0.89341408     0.13500
C1665       C  0.88423864  0.04147302  0.88658641     0.02900
N1666       N  0.89008739  0.06667135  0.83216098    -0.80800
H1667       H  0.84652363  0.05717637  0.79868979     0.18300
C1668       C  0.90852980  0.02709162  0.88016639    -0.25700
C1669       C  0.92905758  0.02276768  0.90025700     0.36400
C1670       C  0.92515557  0.03294378  0.92731559    -0.19700
C1671       C  0.90163474  0.04867024  0.93337595    -0.24900
C1672       C  0.88103624  0.05297096  0.91323447     0.27700
H1673       H  0.91097769  0.01829129  0.85970423     0.13500
N1674       N  0.95369344  0.00767530  0.89348797    -0.82200
H1675       H  0.89876880  0.05653514  0.95416108     0.18300
N1676       N  0.85657099  0.06837215  0.91983959    -0.80800
H1677       H  0.95336740  0.00150429  0.87276305     0.34000
H1678       H  0.97044889  0.02116811  0.89564815     0.38500
H1679       H  0.85728732  0.07530228  0.94031151     0.33900
H1680       H  0.85645715  0.08592706  0.90732722     0.30600
H1681       H  0.88946640  0.07340408  0.81164031     0.33900
H1682       H  0.89157140  0.08431675  0.84451195     0.30600
H1683       H  0.77402462  0.02499104  0.85853517     0.38500
H1684       H  0.79071287  0.00456489  0.88092122     0.34000
C1685       C  0.96740519  0.17906063  0.17829564    -0.19800
C1686       C  0.95393645  0.15415662  0.18537737     0.36500
C1687       C  0.95115693  0.13321915  0.16536251    -0.25700
C1688       C  0.96166892  0.13656823  0.13851996     0.02900
C1689       C  0.97426822  0.16175067  0.13116368     0.27700
C1690       C  0.97662952  0.18283692  0.15098110    -0.24900
N1691       N  0.94341263  0.15007791  0.21286896    -0.82300
H1692       H  0.94128110  0.11391788  0.17084348     0.13500
C1693       C  0.96123315  0.11293448  0.11889379     0.02900
N1694       N  0.98565039  0.16538543  0.10393610    -0.80800
H1695       H  0.98714383  0.20177980  0.14542098     0.18300
C1696       C  0.94765728  0.11546692  0.09337646    -0.25700
C1697       C  0.94905465  0.09440052  0.07335705     0.36400
C1698       C  0.96436698  0.07023586  0.07903874    -0.19700
C1699       C  0.97678472  0.06727157  0.10514894    -0.24900
C1700       C  0.97572745  0.08849046  0.12493941     0.27700
H1701       H  0.93634844  0.13419311  0.08891641     0.13500
N1702       N  0.93522267  0.09760115  0.04724200    -0.82200
H1703       H  0.98872152  0.04894411  0.10961049     0.18300
N1704       N  0.99028072  0.08578795  0.15073061    -0.80800
H1705       H  0.92515746  0.11662213  0.04628639     0.34000
H1706       H  0.91985083  0.08245718  0.04606870     0.38500
H1707       H  0.99993771  0.06657882  0.15199784     0.33900
H1708       H  0.00603341  0.10058575  0.15099729     0.30600
H1709       H  0.99422410  0.18507502  0.10184413     0.33900
H1710       H  0.00192645  0.15141582  0.10170506     0.30600
H1711       H  0.92765648  0.16445156  0.21603117     0.38500
H1712       H  0.93434636  0.13058231  0.21471485     0.34000
loop_ 
_geom_bond_atom_site_label_1 
_geom_bond_atom_site_label_2 
_geom_bond_distance 
_geom_bond_site_symmetry_2 
_ccdc_geom_bond_type 
O1           C17   1.272   1_565  A
O1           Zn7   2.008       .  S
C2           O18   1.274   1_455  A
C2           O15   1.277       .  A
C2         C1614   1.497       .  S
O3           C16   1.277       .  A
O3          Cd10   2.089       .  S
O4           C22   1.277       .  A
O4          Cd13   2.076   1_554  S
O5           C19   1.276       .  A
O5           Cd9   2.071   1_455  S
O6           C17   1.275       .  A
O6           Cd9   2.090       .  S
Zn7          O18   2.005       .  S
Zn7          O20   2.004   1_556  S
Zn7          O12   1.925   1_556  S
O8           C19   1.277       .  A
O8          Cd13   2.078   1_545  S
Cd9          O11   2.071   1_556  S
Cd9          O12   2.008   1_546  S
Cd10         O14   2.086   1_565  S
Cd10         O23   2.084   1_655  S
Cd10         O12   2.013       .  S
O11          C21   1.275       .  A
O12         Cd13   2.010   1_654  S
Cd13         O15   2.101       .  S
O14          C21   1.278       .  A
C16          O20   1.274       .  A
C16        C1545   1.478       .  S
C17        C1670   1.477       .  S
C19        C1586   1.489       .  S
C21        C1698   1.488       .  S
C22          O23   1.277       .  A
C22        C1629   1.493       .  S
O24          C40   1.272       .  A
O24         Zn30   1.999   1_455  S
C25          O41   1.273       .  A
C25          O38   1.276       .  A
C25        C1446   1.484       .  S
O26          C39   1.276       .  A
O26         Cd33   2.083       .  S
O27          C45   1.275       .  A
O27         Cd36   2.070       .  S
O28          C42   1.278       .  A
O28         Cd32   2.083       .  S
O29          C40   1.277       .  A
O29         Cd32   2.100       .  S
Zn30         O41   2.009       .  S
Zn30         O43   2.005       .  S
Zn30         O35   1.929   1_655  S
O31          C42   1.275       .  A
O31         Cd36   2.067   1_455  S
Cd32         O34   2.077       .  S
Cd32         O35   2.014       .  S
Cd33         O37   2.077   1_655  S
Cd33         O46   2.078       .  S
Cd33         O35   2.009   1_655  S
O34          C44   1.276       .  A
O35         Cd36   2.008   1_455  S
Cd36         O38   2.088       .  S
O37          C44   1.277       .  A
C39          O43   1.273       .  A
C39        C1517   1.478       .  S
C40        C1489   1.477       .  S
C42        C1461   1.484       .  S
C44        C1418   1.488       .  S
C45          O46   1.275       .  A
C45        C1685   1.487       .  S
O47          C63   1.272       .  A
O47         Zn53   2.001       .  S
C48          O64   1.271       .  A
C48          O61   1.278       .  A
C48        C1293   1.482       .  S
O49          C62   1.276       .  A
O49         Cd56   2.091       .  S
O50          C68   1.278       .  A
O50         Cd59   2.090       .  S
O51          C65   1.276       .  A
O51         Cd55   2.075       .  S
O52          C63   1.277       .  A
O52         Cd55   2.099       .  S
Zn53         O64   1.980       .  S
Zn53         O66   1.997       .  S
Zn53         O58   1.916       .  S
O54          C65   1.278       .  A
O54         Cd59   2.082       .  S
Cd55         O57   2.078       .  S
Cd55         O58   2.004       .  S
Cd56         O60   2.068       .  S
Cd56         O69   2.068       .  S
Cd56         O58   2.006       .  S
O57          C67   1.277       .  A
O58         Cd59   2.014       .  S
Cd59         O61   2.101       .  S
O60          C67   1.276       .  A
C62          O66   1.271       .  A
C62        C1530   1.478       .  S
C63        C1334   1.490       .  S
C65        C1349   1.494       .  S
C67        C1278   1.484       .  S
C68          O69   1.275       .  A
C68        C1390   1.487       .  S
O70          C86   1.270       .  A
O70         Zn76   1.994   1_545  S
C71          O87   1.271       .  A
C71          O84   1.275       .  A
C71        C1237   1.478       .  S
O72          C85   1.279       .  A
O72         Cd79   2.110       .  S
O73          C91   1.275       .  A
O73         Cd82   2.069       .  S
O74          C88   1.277       .  A
O74         Cd78   2.075       .  S
O75          C86   1.275       .  A
O75         Cd78   2.092       .  S
Zn76         O87   1.990       .  S
Zn76         O89   2.004       .  S
Zn76         O81   1.919   1_565  S
O77          C88   1.275       .  A
O77         Cd82   2.073   1_545  S
Cd78         O80   2.072       .  S
Cd78         O81   2.009       .  S
Cd79         O83   2.085   1_565  S
Cd79         O92   2.080       .  S
Cd79         O81   2.013   1_565  S
O80          C90   1.276       .  A
O81         Cd82   2.016   1_545  S
Cd82         O84   2.090       .  S
O83          C90   1.277       .  A
C85          O89   1.273       .  A
C85        C1153   1.489       .  S
C86        C1657   1.475       .  S
C88        C1181   1.489       .  S
C90        C1377   1.489       .  S
C91          O92   1.278       .  A
C91        C1222   1.481       .  S
O93         C109   1.272       .  A
O93         Zn99   2.003       .  S
C94         O110   1.272       .  A
C94         O107   1.277       .  A
C94        C1041   1.484       .  S
O95         C108   1.277       .  A
O95        Cd102   2.098       .  S
O96         C114   1.278       .  A
O96        Cd105   2.081       .  S
O97         C111   1.278       .  A
O97        Cd101   2.081   1_545  S
O98         C109   1.278       .  A
O98        Cd101   2.104       .  S
Zn99        O110   2.005   1_565  S
Zn99        O112   1.996       .  S
Zn99        O104   1.926   1_565  S
O100        C111   1.276       .  A
O100       Cd105   2.072       .  S
Cd101       O103   2.088       .  S
Cd101       O104   2.015   1_565  S
Cd102       O106   2.077       .  S
Cd102       O115   2.081   1_565  S
Cd102       O104   2.012   1_565  S
O103        C113   1.277       .  A
O104       Cd105   2.011       .  S
Cd105       O107   2.098       .  S
O106        C113   1.277       .  A
C108        O112   1.273       .  A
C108       C1097   1.491       .  S
C109       C1125   1.482       .  S
C111       C1069   1.488       .  S
C113       C1642   1.493       .  S
C114        O115   1.277       .  A
C114       C1405   1.490       .  S
O116        C132   1.271       .  A
O116       Zn122   1.981       .  S
C117        O133   1.272   1_655  A
C117        O130   1.277       .  A
C117       C1026   1.484       .  S
O118        C131   1.276       .  A
O118       Cd125   2.096       .  S
O119        C137   1.277       .  A
O119       Cd128   2.073       .  S
O120        C134   1.279       .  A
O120       Cd124   2.092   1_655  S
O121        C132   1.277       .  A
O121       Cd124   2.097       .  S
Zn122       O133   2.002       .  S
Zn122       O135   1.992       .  S
Zn122       O127   1.921       .  S
O123        C134   1.277       .  A
O123       Cd128   2.089       .  S
Cd124       O126   2.089       .  S
Cd124       O127   2.016       .  S
Cd125       O129   2.069       .  S
Cd125       O138   2.068   1_455  S
Cd125       O127   2.009       .  S
O126        C136   1.278       .  A
O127       Cd128   2.008   1_455  S
Cd128       O130   2.096       .  S
O129        C136   1.275       .  A
C131        O135   1.271       .  A
C131        C929   1.492       .  S
C132        C985   1.481       .  S
C134        C970   1.504       .  S
C136       C1502   1.489       .  S
C137        O138   1.275       .  A
C137       C1306   1.492       .  S
O139        C155   1.272       .  A
O139       Zn145   1.997       .  S
C140        O156   1.272       .  A
C140        O153   1.275       .  A
C140        C873   1.483       .  S
O141        C154   1.277       .  A
O141       Cd148   2.100       .  S
O142        C160   1.275       .  A
O142       Cd151   2.064       .  S
O143        C157   1.279       .  A
O143       Cd147   2.097       .  S
O144        C155   1.277       .  A
O144       Cd147   2.099       .  S
Zn145       O156   1.995       .  S
Zn145       O158   2.001       .  S
Zn145       O150   1.921       .  S
O146        C157   1.275       .  A
O146       Cd151   2.070       .  S
Cd147       O149   2.081       .  S
Cd147       O150   2.017       .  S
Cd148       O152   2.067       .  S
Cd148       O161   2.076       .  S
Cd148       O150   2.011       .  S
O149        C159   1.277       .  A
O150       Cd151   2.006       .  S
Cd151       O153   2.085       .  S
O152        C159   1.276       .  A
C154        O158   1.272       .  A
C154        C817   1.485       .  S
C155        C901   1.478       .  S
C157        C858   1.483       .  S
C159       C1362   1.481       .  S
C160        O161   1.275       .  A
C160       C1194   1.488       .  S
O162        C178   1.271       .  A
O162       Zn168   1.993       .  S
C163        O179   1.273       .  A
C163        O176   1.277       .  A
C163       C1250   1.488       .  S
O164        C177   1.276       .  A
O164       Cd171   2.084       .  S
O165        C183   1.277       .  A
O165       Cd174   2.081   1_554  S
O166        C180   1.274       .  A
O166       Cd170   2.065       .  S
O167        C178   1.275       .  A
O167       Cd170   2.090       .  S
Zn168       O179   2.001       .  S
Zn168       O181   2.007       .  S
Zn168       O173   1.921       .  S
O169        C180   1.277       .  A
O169       Cd174   2.079       .  S
Cd170       O172   2.075   1_556  S
Cd170       O173   2.009       .  S
Cd171       O175   2.076       .  S
Cd171       O184   2.078       .  S
Cd171       O173   2.005   1_554  S
O172        C182   1.276       .  A
O173       Cd174   2.013       .  S
Cd174       O176   2.097       .  S
O175        C182   1.276       .  A
C177        O181   1.274   1_554  A
C177       C1558   1.478       .  S
C178        C789   1.479       .  S
C180        C705   1.486       .  S
C182        C761   1.492       .  S
C183        O184   1.277       .  A
C183        C733   1.489       .  S
O185        C201   1.269       .  A
O185       Zn191   1.975       .  S
C186        O202   1.270       .  A
C186        O199   1.277       .  A
C186        C662   1.479       .  S
O187        C200   1.277       .  A
O187       Cd194   2.095       .  S
O188        C206   1.276       .  A
O188       Cd197   2.078   1_554  S
O189        C203   1.278       .  A
O189       Cd193   2.083       .  S
O190        C201   1.277       .  A
O190       Cd193   2.102       .  S
Zn191       O202   1.982       .  S
Zn191       O204   1.991       .  S
Zn191       O196   1.913       .  S
O192        C203   1.278       .  A
O192       Cd197   2.080       .  S
Cd193       O195   2.073   1_556  S
Cd193       O196   2.016       .  S
Cd194       O198   2.064       .  S
Cd194       O207   2.072       .  S
Cd194       O196   2.005   1_554  S
O195        C205   1.275       .  A
O196       Cd197   2.013       .  S
Cd197       O199   2.105       .  S
O198        C205   1.275       .  A
C200        O204   1.271   1_554  A
C200        C677   1.484       .  S
C201        C886   1.477       .  S
C203       C1573   1.493       .  S
C205       C1082   1.483       .  S
C206        O207   1.276       .  A
C206       C1474   1.480       .  S
O208        C224   1.271       .  A
O208       Zn214   1.997       .  S
C209        O225   1.272       .  A
C209        O222   1.275       .  A
C209       C1433   1.482       .  S
O210        C223   1.279       .  A
O210       Cd217   2.109       .  S
O211        C229   1.275       .  A
O211       Cd220   2.065       .  S
O212        C226   1.276       .  A
O212       Cd216   2.078       .  S
O213        C224   1.276       .  A
O213       Cd216   2.093       .  S
Zn214       O225   1.989       .  S
Zn214       O227   2.015       .  S
Zn214       O219   1.922       .  S
O215        C226   1.275       .  A
O215       Cd220   2.071       .  S
Cd216       O218   2.075       .  S
Cd216       O219   2.013       .  S
Cd217       O221   2.084       .  S
Cd217       O230   2.091       .  S
Cd217       O219   2.014       .  S
O218        C228   1.276       .  A
O219       Cd220   2.012       .  S
Cd220       O222   2.091       .  S
O221        C228   1.278       .  A
C223        O227   1.275       .  A
C223        C957   1.500       .  S
C224       C1321   1.480       .  S
C226        C606   1.486       .  S
C228        C621   1.489       .  S
C229        O230   1.279       .  A
C229        C774   1.489       .  S
O231        C247   1.273       .  A
O231       Zn237   1.999       .  S
C232        O248   1.274   1_545  A
C232        O245   1.275       .  A
C232       C1054   1.482       .  S
O233        C246   1.277       .  A
O233       Cd240   2.100       .  S
O234        C252   1.276       .  A
O234       Cd243   2.064       .  S
O235        C249   1.275       .  A
O235       Cd239   2.083   1_545  S
O236        C247   1.276       .  A
O236       Cd239   2.081       .  S
Zn237       O248   2.013       .  S
Zn237       O250   2.011       .  S
Zn237       O242   1.925       .  S
O238        C249   1.273       .  A
O238       Cd243   2.061       .  S
Cd239       O241   2.071       .  S
Cd239       O242   2.012       .  S
Cd240       O244   2.078       .  S
Cd240       O253   2.078   1_565  S
Cd240       O242   2.012       .  S
O241        C251   1.275       .  A
O242       Cd243   2.000   1_565  S
Cd243       O245   2.082       .  S
O244        C251   1.276       .  A
C246        O250   1.274       .  A
C246        C537   1.486       .  S
C247        C578   1.477       .  S
C249        C845   1.488       .  S
C251       C1209   1.477       .  S
C252        O253   1.277       .  A
C252       C1265   1.487       .  S
O254        C270   1.272       .  A
O254       Zn260   2.006   1_655  S
C255        O271   1.273       .  A
C255        O268   1.278       .  A
C255        C494   1.481       .  S
O256        C269   1.277       .  A
O256       Cd263   2.095       .  S
O257        C275   1.279       .  A
O257       Cd266   2.098       .  S
O258        C272   1.277       .  A
O258       Cd262   2.082       .  S
O259        C270   1.276       .  A
O259       Cd262   2.091       .  S
Zn260       O271   2.006       .  S
Zn260       O273   1.999       .  S
Zn260       O265   1.929   1_455  S
O261        C272   1.279       .  A
O261       Cd266   2.090   1_655  S
Cd262       O264   2.071       .  S
Cd262       O265   2.010       .  S
Cd263       O267   2.079   1_455  S
Cd263       O276   2.078       .  S
Cd263       O265   2.010   1_455  S
O264        C274   1.276       .  A
O265       Cd266   2.014   1_655  S
Cd266       O268   2.097       .  S
O267        C274   1.276       .  A
C269        O273   1.272       .  A
C269        C522   1.486       .  S
C270       C1013   1.479       .  S
C272       C1166   1.496       .  S
C274        C802   1.493       .  S
C275        O276   1.277       .  A
C275       C1601   1.497       .  S
O277        C293   1.273       .  A
O277       Zn283   2.012       .  S
C278        O294   1.274       .  A
C278        O291   1.277       .  A
C278        C453   1.492       .  S
O279        C292   1.278       .  A
O279       Cd286   2.106       .  S
O280        C298   1.277       .  A
O280       Cd289   2.078       .  S
O281        C295   1.276       .  A
O281       Cd285   2.072       .  S
O282        C293   1.277       .  A
O282       Cd285   2.096       .  S
Zn283       O294   2.007       .  S
Zn283       O296   2.005       .  S
Zn283       O288   1.930       .  S
O284        C295   1.277       .  A
O284       Cd289   2.084       .  S
Cd285       O287   2.073       .  S
Cd285       O288   2.008       .  S
Cd286       O290   2.092       .  S
Cd286       O299   2.083       .  S
Cd286       O288   2.017       .  S
O287        C297   1.275       .  A
O288       Cd289   2.016       .  S
Cd289       O291   2.097       .  S
O290        C297   1.279       .  A
C292        O296   1.274       .  A
C292        C550   1.486       .  S
C293       C1138   1.486       .  S
C295        C425   1.492       .  S
C297        C746   1.493       .  S
C298        O299   1.277       .  A
C298        C634   1.490       .  S
O300        C316   1.272       .  A
O300       Zn306   1.992       .  S
C301        O317   1.273       .  A
C301        O314   1.274       .  A
C301        C998   1.481       .  S
O302        C315   1.276       .  A
O302       Cd309   2.089       .  S
O303        C321   1.276       .  A
O303       Cd312   2.076       .  S
O304        C318   1.279       .  A
O304       Cd308   2.088       .  S
O305        C316   1.277       .  A
O305       Cd308   2.105       .  S
Zn306       O317   1.999       .  S
Zn306       O319   2.007       .  S
Zn306       O311   1.921       .  S
O307        C318   1.274       .  A
O307       Cd312   2.062       .  S
Cd308       O310   2.071       .  S
Cd308       O311   2.015       .  S
Cd309       O313   2.077       .  S
Cd309       O322   2.082       .  S
Cd309       O311   2.007       .  S
O310        C320   1.277       .  A
O311       Cd312   2.004       .  S
Cd312       O314   2.078       .  S
O313        C320   1.277       .  A
C315        O319   1.274       .  A
C315        C397   1.492       .  S
C316        C481   1.485       .  S
C318       C1110   1.496       .  S
C320        C565   1.491       .  S
C321        O322   1.276       .  A
C321        C466   1.495       .  S
O323        C339   1.274       .  A
O323       Zn329   2.013       .  S
C324        O340   1.271       .  A
C324        O337   1.273       .  A
C324        C369   1.470       .  S
O325        C338   1.277       .  A
O325       Cd332   2.100       .  S
O326        C344   1.274       .  A
O326       Cd335   2.068       .  S
O327        C341   1.279       .  A
O327       Cd331   2.094       .  S
O328        C339   1.277       .  A
O328       Cd331   2.091       .  S
Zn329       O340   1.994       .  S
Zn329       O342   1.993       .  S
Zn329       O334   1.925       .  S
O330        C341   1.274       .  A
O330       Cd335   2.065       .  S
Cd331       O333   2.067       .  S
Cd331       O334   2.008       .  S
Cd332       O336   2.078       .  S
Cd332       O345   2.088       .  S
Cd332       O334   2.016       .  S
O333        C343   1.275       .  A
O334       Cd335   2.002       .  S
Cd335       O337   2.075       .  S
O336        C343   1.277       .  A
C338        O342   1.272       .  A
C338        C649   1.490       .  S
C339        C914   1.485       .  S
C341        C410   1.498       .  S
C343        C942   1.490       .  S
C344        O345   1.278       .  A
C344        C509   1.496       .  S
O346        C362   1.273       .  A
O346       Zn352   2.009       .  S
C347        O363   1.272   1_554  A
C347        O360   1.275       .  A
C347        C690   1.476       .  S
O348        C361   1.275       .  A
O348       Cd355   2.088       .  S
O349        C367   1.276       .  A
O349       Cd358   2.080       .  S
O350        C364   1.276       .  A
O350       Cd354   2.077   1_554  S
O351        C362   1.276       .  A
O351       Cd354   2.096       .  S
Zn352       O363   1.993       .  S
Zn352       O365   1.999       .  S
Zn352       O357   1.923       .  S
O353        C364   1.276       .  A
O353       Cd358   2.065       .  S
Cd354       O356   2.069       .  S
Cd354       O357   2.009       .  S
Cd355       O359   2.086       .  S
Cd355       O368   2.084   1_556  S
Cd355       O357   2.012       .  S
O356        C366   1.277       .  A
O357       Cd358   2.006   1_556  S
Cd358       O360   2.087       .  S
O359        C366   1.277       .  A
C361        O365   1.272       .  A
C361        C382   1.471       .  S
C362        C830   1.485       .  S
C364        C593   1.488       .  S
C366        C718   1.494       .  S
C367        O368   1.277       .  A
C367        C438   1.493       .  S
C369        C370   1.410       .  A
C369        C374   1.401       .  A
C370        C371   1.402       .  A
C370        N375   1.439       .  S
C371        C372   1.402       .  A
C371        H376   1.084       .  S
C372        C377   1.482       .  S
C372        C373   1.412       .  A
C373        C374   1.406       .  A
C373        N378   1.437       .  S
C374        H379   1.084       .  S
N375        H395   1.046       .  S
N375        H396   1.046       .  S
C377        C380   1.402       .  A
C377        C384   1.412       .  A
N378        H393   1.046       .  S
N378        H394   1.045       .  S
C380        C381   1.401       .  A
C380        H385   1.084       .  S
C381        C382   1.408       .  A
C381        N386   1.438       .  S
C382        C383   1.403       .  A
C383        C384   1.409       .  A
C383        H387   1.084       .  S
C384        N388   1.437       .  S
N386        H389   1.046       .  S
N386        H390   1.046       .  S
N388        H391   1.046       .  S
N388        H392   1.046       .  S
C397        C398   1.418       .  A
C397        C402   1.407       .  A
C398        C399   1.411       .  A
C398        N403   1.437       .  S
C399        C400   1.403       .  A
C399        H404   1.083       .  S
C400        C405   1.487       .  S
C400        C401   1.410       .  A
C401        C402   1.402       .  A
C401        N406   1.439       .  S
C402        H407   1.083       .  S
N403        H423   1.045       .  S
N403        H424   1.046       .  S
C405        C408   1.399       .  A
C405        C412   1.409       .  A
N406        H421   1.046       .  S
N406        H422   1.046       .  S
C408        C409   1.405       .  A
C408        H413   1.084       .  S
C409        C410   1.422       .  A
C409        N414   1.438       .  S
C410        C411   1.410       .  A
C411        C412   1.410       .  A
C411        H415   1.083       .  S
C412        N416   1.438       .  S
N414        H417   1.046       .  S
N414        H418   1.045       .  S
N416        H419   1.046       .  S
N416        H420   1.045       .  S
C425        C426   1.418       .  A
C425        C430   1.408       .  A
C426        C427   1.404       .  A
C426        N431   1.439       .  S
C427        C428   1.402       .  A
C427        H432   1.083       .  S
C428        C433   1.495       .  S
C428        C429   1.413       .  A
C429        C430   1.411       .  A
C429        N434   1.437       .  S
C430        H435   1.083       .  S
N431        H451   1.046       .  S
N431        H452   1.046       .  S
C433        C436   1.404       .  A
C433        C440   1.413       .  A
N434        H449   1.046       .  S
N434        H450   1.045       .  S
C436        C437   1.408       .  A
C436        H441   1.083       .  S
C437        C438   1.418       .  A
C437        N442   1.438       .  S
C438        C439   1.407       .  A
C439        C440   1.408       .  A
C439        H443   1.083       .  S
C440        N444   1.438       .  S
N442        H445   1.046       .  S
N442        H446   1.046       .  S
N444        H447   1.046       .  S
N444        H448   1.046       .  S
C453        C454   1.417       .  A
C453        C458   1.407       .  A
C454        C455   1.412       .  A
C454        N459   1.437       .  S
C455        C456   1.403       .  A
C455        H460   1.084       .  S
C456        C461   1.486       .  S
C456        C457   1.408       .  A
C457        C458   1.403       .  A
C457        N462   1.439       .  S
C458        H463   1.084       .  S
N459        H479   1.045       .  S
N459        H480   1.045       .  S
C461        C464   1.402       .  A
C461        C468   1.408       .  A
N462        H477   1.046       .  S
N462        H478   1.046       .  S
C464        C465   1.409       .  A
C464        H469   1.084       .  S
C465        C466   1.418       .  A
C465        N470   1.438       .  S
C466        C467   1.409       .  A
C467        C468   1.406       .  A
C467        H471   1.083       .  S
C468        N472   1.438       .  S
N470        H473   1.046       .  S
N470        H474   1.046       .  S
N472        H475   1.046       .  S
N472        H476   1.046       .  S
C481        C482   1.414       .  A
C481        C486   1.405       .  A
C482        C483   1.414       .  A
C482        N487   1.437       .  S
C483        C484   1.405       .  A
C483        H488   1.083       .  S
C484        C489   1.483       .  S
C484        C485   1.407       .  A
C485        C486   1.401       .  A
C485        N490   1.439       .  S
C486        H491   1.084       .  S
N487        H507   1.045       .  S
N487        H508   1.046       .  S
C489        C492   1.403       .  A
C489        C496   1.409       .  A
N490        H505   1.046       .  S
N490        H506   1.045       .  S
C492        C493   1.411       .  A
C492        H497   1.084       .  S
C493        C494   1.412       .  A
C493        N498   1.437       .  S
C494        C495   1.404       .  A
C495        C496   1.405       .  A
C495        H499   1.084       .  S
C496        N500   1.438       .  S
N498        H501   1.046       .  S
N498        H502   1.046       .  S
N500        H503   1.046       .  S
N500        H504   1.045       .  S
C509        C510   1.422       .  A
C509        C514   1.409       .  A
C510        C511   1.407       .  A
C510        N515   1.438       .  S
C511        C512   1.400       .  A
C511        H516   1.084       .  S
C512        C517   1.483       .  S
C512        C513   1.407       .  A
C513        C514   1.407       .  A
C513        N518   1.437       .  S
C514        H519   1.083       .  S
N515        H535   1.046       .  S
N515        H536   1.046       .  S
C517        C520   1.399       .  A
C517        C524   1.409       .  A
N518        H533   1.046       .  S
N518        H534   1.046       .  S
C520        C521   1.403       .  A
C520        H525   1.084       .  S
C521        C522   1.416       .  A
C521        N526   1.439       .  S
C522        C523   1.406       .  A
C523        C524   1.410       .  A
C523        H527   1.083       .  S
C524        N528   1.437       .  S
N526        H529   1.046       .  S
N526        H530   1.046       .  S
N528        H531   1.046       .  S
N528        H532   1.046       .  S
C537        C538   1.414       .  A
C537        C542   1.405       .  A
C538        C539   1.413       .  A
C538        N543   1.437       .  S
C539        C540   1.404       .  A
C539        H544   1.083       .  S
C540        C545   1.485       .  S
C540        C541   1.409       .  A
C541        C542   1.404       .  A
C541        N546   1.439       .  S
C542        H547   1.084       .  S
N543        H563   1.045       .  S
N543        H564   1.046       .  S
C545        C548   1.404       .  A
C545        C552   1.409       .  A
N546        H561   1.046       .  S
N546        H562   1.045       .  S
C548        C549   1.414       .  A
C548        H553   1.083       .  S
C549        C550   1.414       .  A
C549        N554   1.437       .  S
C550        C551   1.405       .  A
C551        C552   1.404       .  A
C551        H555   1.084       .  S
C552        N556   1.439       .  S
N554        H557   1.046       .  S
N554        H558   1.045       .  S
N556        H559   1.045       .  S
N556        H560   1.045       .  S
C565        C566   1.418       .  A
C565        C570   1.409       .  A
C566        C567   1.405       .  A
C566        N571   1.438       .  S
C567        C568   1.401       .  A
C567        H572   1.084       .  S
C568        C573   1.482       .  S
C568        C569   1.408       .  A
C569        C570   1.405       .  A
C569        N574   1.438       .  S
C570        H575   1.083       .  S
N571        H591   1.046       .  S
N571        H592   1.046       .  S
C573        C576   1.402       .  A
C573        C580   1.410       .  A
N574        H589   1.046       .  S
N574        H590   1.046       .  S
C576        C577   1.403       .  A
C576        H581   1.084       .  S
C577        C578   1.413       .  A
C577        N582   1.439       .  S
C578        C579   1.403       .  A
C579        C580   1.406       .  A
C579        H583   1.084       .  S
C580        N584   1.437       .  S
N582        H585   1.046       .  S
N582        H586   1.046       .  S
N584        H587   1.046       .  S
N584        H588   1.045       .  S
C593        C594   1.417       .  A
C593        C598   1.407       .  A
C594        C595   1.407       .  A
C594        N599   1.438       .  S
C595        C596   1.403       .  A
C595        H600   1.084       .  S
C596        C601   1.485       .  S
C596        C597   1.408       .  A
C597        C598   1.404       .  A
C597        N602   1.438       .  S
C598        H603   1.083       .  S
N599        H619   1.046       .  S
N599        H620   1.046       .  S
C601        C604   1.403       .  A
C601        C608   1.408       .  A
N602        H617   1.046       .  S
N602        H618   1.046       .  S
C604        C605   1.405       .  A
C604        H609   1.084       .  S
C605        C606   1.415       .  A
C605        N610   1.438       .  S
C606        C607   1.407       .  A
C607        C608   1.407       .  A
C607        H611   1.083       .  S
C608        N612   1.437       .  S
N610        H613   1.046       .  S
N610        H614   1.046       .  S
N612        H615   1.046       .  S
N612        H616   1.046       .  S
C621        C622   1.416       .  A
C621        C626   1.407       .  A
C622        C623   1.407       .  A
C622        N627   1.438       .  S
C623        C624   1.403       .  A
C623        H628   1.084       .  S
C624        C629   1.492       .  S
C624        C625   1.411       .  A
C625        C626   1.408       .  A
C625        N630   1.438       .  S
C626        H631   1.084       .  S
N627        H647   1.046       .  S
N627        H648   1.046       .  S
C629        C632   1.403       .  A
C629        C636   1.412       .  A
N630        H645   1.046       .  S
N630        H646   1.045       .  S
C632        C633   1.406       .  A
C632        H637   1.084       .  S
C633        C634   1.417       .  A
C633        N638   1.439       .  S
C634        C635   1.407       .  A
C635        C636   1.409       .  A
C635        H639   1.083       .  S
C636        N640   1.437       .  S
N638        H641   1.046       .  S
N638        H642   1.046       .  S
N640        H643   1.046       .  S
N640        H644   1.046       .  S
C649        C650   1.416       .  A
C649        C654   1.408       .  A
C650        C651   1.412       .  A
C650        N655   1.437       .  S
C651        C652   1.403       .  A
C651        H656   1.083       .  S
C652        C657   1.482       .  S
C652        C653   1.407       .  A
C653        C654   1.401       .  A
C653        N658   1.439       .  S
C654        H659   1.084       .  S
N655        H675   1.046       .  S
N655        H676   1.046       .  S
C657        C660   1.400       .  A
C657        C664   1.411       .  A
N658        H673   1.046       .  S
N658        H674   1.046       .  S
C660        C661   1.402       .  A
C660        H665   1.084       .  S
C661        C662   1.413       .  A
C661        N666   1.439       .  S
C662        C663   1.404       .  A
C663        C664   1.412       .  A
C663        H667   1.084       .  S
C664        N668   1.437       .  S
N666        H669   1.046       .  S
N666        H670   1.046       .  S
N668        H671   1.046       .  S
N668        H672   1.046       .  S
C677        C678   1.414       .  A
C677        C682   1.407       .  A
C678        C679   1.410       .  A
C678        N683   1.437       .  S
C679        C680   1.402       .  A
C679        H684   1.084       .  S
C680        C685   1.478       .  S
C680        C681   1.407       .  A
C681        C682   1.401       .  A
C681        N686   1.439   1_554  S
C682        H687   1.084   1_554  S
N683        H703   1.046       .  S
N683        H704   1.046       .  S
C685        C688   1.403       .  A
C685        C692   1.407       .  A
N686        H701   1.046       .  S
N686        H702   1.045       .  S
C688        C689   1.410       .  A
C688        H693   1.084       .  S
C689        C690   1.412       .  A
C689        N694   1.437       .  S
C690        C691   1.403       .  A
C691        C692   1.401       .  A
C691        H695   1.084       .  S
C692        N696   1.438       .  S
N694        H697   1.046       .  S
N694        H698   1.045       .  S
N696        H699   1.046   1_554  S
N696        H700   1.045   1_554  S
C705        C706   1.417       .  A
C705        C710   1.407       .  A
C706        C707   1.404       .  A
C706        N711   1.439       .  S
C707        C708   1.402       .  A
C707        H712   1.084       .  S
C708        C713   1.487       .  S
C708        C709   1.410       .  A
C709        C710   1.408       .  A
C709        N714   1.437       .  S
C710        H715   1.084       .  S
N711        H731   1.045       .  S
N711        H732   1.046   1_556  S
C713        C716   1.402       .  A
C713        C720   1.408       .  A
N714        H729   1.046       .  S
N714        H730   1.046       .  S
C716        C717   1.408       .  A
C716        H721   1.084       .  S
C717        C718   1.419       .  A
C717        N722   1.438       .  S
C718        C719   1.409       .  A
C719        C720   1.405       .  A
C719        H723   1.083       .  S
C720        N724   1.438       .  S
N722        H725   1.046       .  S
N722        H726   1.046   1_556  S
N724        H727   1.046       .  S
N724        H728   1.045       .  S
C733        C734   1.414       .  A
C733        C738   1.407       .  A
C734        C735   1.408       .  A
C734        N739   1.438       .  S
C735        C736   1.404       .  A
C735        H740   1.084       .  S
C736        C741   1.492       .  S
C736        C737   1.412       .  A
C737        C738   1.408       .  A
C737        N742   1.438       .  S
C738        H743   1.084       .  S
N739        H759   1.046       .  S
N739        H760   1.046       .  S
C741        C744   1.404       .  A
C741        C748   1.411       .  A
N742        H757   1.046       .  S
N742        H758   1.046       .  S
C744        C745   1.410       .  A
C744        H749   1.084       .  S
C745        C746   1.418       .  A
C745        N750   1.438       .  S
C746        C747   1.406       .  A
C747        C748   1.407       .  A
C747        H751   1.083       .  S
C748        N752   1.438       .  S
N750        H753   1.046       .  S
N750        H754   1.046       .  S
N752        H755   1.045       .  S
N752        H756   1.046       .  S
C761        C762   1.418       .  A
C761        C766   1.408       .  A
C762        C763   1.406       .  A
C762        N767   1.438       .  S
C763        C764   1.402       .  A
C763        H768   1.084       .  S
C764        C769   1.490       .  S
C764        C765   1.411       .  A
C765        C766   1.407       .  A
C765        N770   1.438       .  S
C766        H771   1.083       .  S
N767        H787   1.046       .  S
N767        H788   1.046       .  S
C769        C772   1.402       .  A
C769        C776   1.412       .  A
N770        H785   1.046       .  S
N770        H786   1.045       .  S
C772        C773   1.404       .  A
C772        H777   1.084       .  S
C773        C774   1.418       .  A
C773        N778   1.439       .  S
C774        C775   1.406       .  A
C775        C776   1.409       .  A
C775        H779   1.083       .  S
C776        N780   1.437       .  S
N778        H781   1.046       .  S
N778        H782   1.046       .  S
N780        H783   1.046       .  S
N780        H784   1.045       .  S
C789        C790   1.413       .  A
C789        C794   1.404       .  A
C790        C791   1.401       .  A
C790        N795   1.439       .  S
C791        C792   1.401       .  A
C791        H796   1.084       .  S
C792        C797   1.486       .  S
C792        C793   1.412       .  A
C793        C794   1.410       .  A
C793        N798   1.437       .  S
C794        H799   1.084       .  S
N795        H815   1.046       .  S
N795        H816   1.046       .  S
C797        C800   1.402       .  A
C797        C804   1.409       .  A
N798        H813   1.046       .  S
N798        H814   1.046       .  S
C800        C801   1.407       .  A
C800        H805   1.084       .  S
C801        C802   1.419       .  A
C801        N806   1.438       .  S
C802        C803   1.409       .  A
C803        C804   1.406       .  A
C803        H807   1.083       .  S
C804        N808   1.438       .  S
N806        H809   1.046       .  S
N806        H810   1.046       .  S
N808        H811   1.046       .  S
N808        H812   1.045       .  S
C817        C818   1.414       .  A
C817        C822   1.406       .  A
C818        C819   1.404       .  A
C818        N823   1.438       .  S
C819        C820   1.399       .  A
C819        H824   1.084       .  S
C820        C825   1.483       .  S
C820        C821   1.410       .  A
C821        C822   1.412       .  A
C821        N826   1.437       .  S
C822        H827   1.084       .  S
N823        H843   1.046       .  S
N823        H844   1.046       .  S
C825        C828   1.400       .  A
C825        C832   1.410       .  A
N826        H841   1.046       .  S
N826        H842   1.045       .  S
C828        C829   1.405       .  A
C828        H833   1.084       .  S
C829        C830   1.414       .  A
C829        N834   1.438       .  S
C830        C831   1.406       .  A
C831        C832   1.412       .  A
C831        H835   1.083       .  S
C832        N836   1.437       .  S
N834        H837   1.046       .  S
N834        H838   1.046       .  S
N836        H839   1.046       .  S
N836        H840   1.045       .  S
C845        C846   1.418       .  A
C845        C850   1.408       .  A
C846        C847   1.403       .  A
C846        N851   1.439       .  S
C847        C848   1.398       .  A
C847        H852   1.084       .  S
C848        C853   1.482       .  S
C848        C849   1.410       .  A
C849        C850   1.410       .  A
C849        N854   1.438       .  S
C850        H855   1.084       .  S
N851        H871   1.046       .  S
N851        H872   1.046       .  S
C853        C856   1.404       .  A
C853        C860   1.410       .  A
N854        H869   1.046       .  S
N854        H870   1.044       .  S
C856        C857   1.411       .  A
C856        H861   1.084       .  S
C857        C858   1.412       .  A
C857        N862   1.437       .  S
C858        C859   1.405       .  A
C859        C860   1.405       .  A
C859        H863   1.084       .  S
C860        N864   1.439       .  S
N862        H865   1.046       .  S
N862        H866   1.046       .  S
N864        H867   1.045       .  S
N864        H868   1.044       .  S
C873        C874   1.414       .  A
C873        C878   1.406       .  A
C874        C875   1.409       .  A
C874        N879   1.437       .  S
C875        C876   1.402       .  A
C875        H880   1.084       .  S
C876        C881   1.478       .  S
C876        C877   1.408       .  A
C877        C878   1.401       .  A
C877        N882   1.440       .  S
C878        H883   1.084       .  S
N879        H899   1.045       .  S
N879        H900   1.046       .  S
C881        C884   1.404       .  A
C881        C888   1.408       .  A
N882        H897   1.046       .  S
N882        H898   1.044       .  S
C884        C885   1.410       .  A
C884        H889   1.084       .  S
C885        C886   1.411       .  A
C885        N890   1.437       .  S
C886        C887   1.404       .  A
C887        C888   1.401       .  A
C887        H891   1.084       .  S
C888        N892   1.440       .  S
N890        H893   1.046       .  S
N890        H894   1.046       .  S
N892        H895   1.046       .  S
N892        H896   1.044       .  S
C901        C902   1.412       .  A
C901        C906   1.402       .  A
C902        C903   1.412       .  A
C902        N907   1.437       .  S
C903        C904   1.405       .  A
C903        H908   1.084       .  S
C904        C909   1.483       .  S
C904        C905   1.408       .  A
C905        C906   1.403       .  A
C905        N910   1.438       .  S
C906        H911   1.084       .  S
N907        H927   1.045       .  S
N907        H928   1.046       .  S
C909        C912   1.402       .  A
C909        C916   1.409       .  A
N910        H925   1.046       .  S
N910        H926   1.046       .  S
C912        C913   1.410       .  A
C912        H917   1.084       .  S
C913        C914   1.415       .  A
C913        N918   1.438       .  S
C914        C915   1.405       .  A
C915        C916   1.405       .  A
C915        H919   1.084       .  S
C916        N920   1.438       .  S
N918        H921   1.046       .  S
N918        H922   1.046       .  S
N920        H923   1.046       .  S
N920        H924   1.046       .  S
C929        C930   1.417       .  A
C929        C934   1.409       .  A
C930        C931   1.411       .  A
C930        N935   1.437       .  S
C931        C932   1.402       .  A
C931        H936   1.084       .  S
C932        C937   1.479       .  S
C932        C933   1.406       .  A
C933        C934   1.401       .  A
C933        N938   1.439       .  S
C934        H939   1.084       .  S
N935        H955   1.046       .  S
N935        H956   1.046       .  S
C937        C940   1.400       .  A
C937        C944   1.407       .  A
N938        H953   1.046       .  S
N938        H954   1.046       .  S
C940        C941   1.406       .  A
C940        H945   1.084       .  S
C941        C942   1.418       .  A
C941        N946   1.438       .  S
C942        C943   1.408       .  A
C943        C944   1.405       .  A
C943        H947   1.083       .  S
C944        N948   1.438       .  S
N946        H949   1.046       .  S
N946        H950   1.046       .  S
N948        H951   1.046       .  S
N948        H952   1.046       .  S
C957        C958   1.418       .  A
C957        C962   1.409       .  A
C958        C959   1.415       .  A
C958        N963   1.437       .  S
C959        C960   1.405       .  A
C959        H964   1.083       .  S
C960        C965   1.494       .  S
C960        C961   1.409       .  A
C961        C962   1.405       .  A
C961        N966   1.438       .  S
C962        H967   1.083       .  S
N963        H983   1.045       .  S
N963        H984   1.045       .  S
C965        C968   1.403       .  A
C965        C972   1.409       .  A
N966        H981   1.046       .  S
N966        H982   1.046       .  S
C968        C969   1.411       .  A
C968        H973   1.084       .  S
C969        C970   1.421       .  A
C969        N974   1.438       .  S
C970        C971   1.411       .  A
C971        C972   1.410       .  A
C971        H975   1.083       .  S
C972        N976   1.438       .  S
N974        H977   1.046       .  S
N974        H978   1.046       .  S
N976        H979   1.046       .  S
N976        H980   1.046       .  S
C985        C986   1.415       .  A
C985        C990   1.407       .  A
C986        C987   1.398       .  A
C986        N991   1.439       .  S
C987        C988   1.398       .  A
C987        H992   1.084       .  S
C988        C993   1.477       .  S
C988        C989   1.409       .  A
C989        C990   1.412       .  A
C989        N994   1.437       .  S
C990        H995   1.083       .  S
N991       H1011   1.046       .  S
N991       H1012   1.046       .  S
C993        C996   1.401       .  A
C993       C1000   1.407       .  A
N994       H1009   1.046       .  S
N994       H1010   1.046       .  S
C996        C997   1.410       .  A
C996       H1001   1.084       .  S
C997        C998   1.415       .  A
C997       N1002   1.437       .  S
C998        C999   1.404       .  A
C999       C1000   1.400       .  A
C999       H1003   1.084       .  S
C1000      N1004   1.438       .  S
N1002      H1005   1.046       .  S
N1002      H1006   1.046       .  S
N1004      H1007   1.046       .  S
N1004      H1008   1.046       .  S
C1013      C1014   1.413       .  A
C1013      C1018   1.403       .  A
C1014      C1015   1.410       .  A
C1014      N1019   1.437       .  S
C1015      C1016   1.403       .  A
C1015      H1020   1.084       .  S
C1016      C1021   1.481       .  S
C1016      C1017   1.409       .  A
C1017      C1018   1.404       .  A
C1017      N1022   1.438       .  S
C1018      H1023   1.084       .  S
N1019      H1039   1.045       .  S
N1019      H1040   1.046       .  S
C1021      C1024   1.402       .  A
C1021      C1028   1.408       .  A
N1022      H1037   1.046       .  S
N1022      H1038   1.046   1_655  S
C1024      C1025   1.409       .  A
C1024      H1029   1.083       .  S
C1025      C1026   1.413       .  A
C1025      N1030   1.437       .  S
C1026      C1027   1.407       .  A
C1027      C1028   1.405       .  A
C1027      H1031   1.084   1_655  S
C1028      N1032   1.439   1_655  S
N1030      H1033   1.046       .  S
N1030      H1034   1.046       .  S
N1032      H1035   1.046       .  S
N1032      H1036   1.046       .  S
C1041      C1042   1.414       .  A
C1041      C1046   1.405       .  A
C1042      C1043   1.411       .  A
C1042      N1047   1.437       .  S
C1043      C1044   1.402       .  A
C1043      H1048   1.084       .  S
C1044      C1049   1.482       .  S
C1044      C1045   1.409       .  A
C1045      C1046   1.404       .  A
C1045      N1050   1.439       .  S
C1046      H1051   1.084       .  S
N1047      H1067   1.045       .  S
N1047      H1068   1.046       .  S
C1049      C1052   1.402       .  A
C1049      C1056   1.409       .  A
N1050      H1065   1.046   1_545  S
N1050      H1066   1.045   1_545  S
C1052      C1053   1.410       .  A
C1052      H1057   1.084       .  S
C1053      C1054   1.415       .  A
C1053      N1058   1.438       .  S
C1054      C1055   1.404       .  A
C1055      C1056   1.404       .  A
C1055      H1059   1.084       .  S
C1056      N1060   1.438       .  S
N1058      H1061   1.046       .  S
N1058      H1062   1.046       .  S
N1060      H1063   1.046   1_545  S
N1060      H1064   1.045   1_545  S
C1069      C1070   1.416       .  A
C1069      C1074   1.406       .  A
C1070      C1071   1.407       .  A
C1070      N1075   1.438       .  S
C1071      C1072   1.403       .  A
C1071      H1076   1.084       .  S
C1072      C1077   1.487       .  S
C1072      C1073   1.411       .  A
C1073      C1074   1.404       .  A
C1073      N1078   1.438       .  S
C1074      H1079   1.083       .  S
N1075      H1095   1.046       .  S
N1075      H1096   1.046       .  S
C1077      C1080   1.405       .  A
C1077      C1084   1.411       .  A
N1078      H1093   1.046       .  S
N1078      H1094   1.046       .  S
C1080      C1081   1.407       .  A
C1080      H1085   1.084       .  S
C1081      C1082   1.413       .  A
C1081      N1086   1.438       .  S
C1082      C1083   1.405       .  A
C1083      C1084   1.403       .  A
C1083      H1087   1.084       .  S
C1084      N1088   1.438       .  S
N1086      H1089   1.046       .  S
N1086      H1090   1.046       .  S
N1088      H1091   1.046       .  S
N1088      H1092   1.046       .  S
C1097      C1098   1.416       .  A
C1097      C1102   1.408       .  A
C1098      C1099   1.412       .  A
C1098      N1103   1.437       .  S
C1099      C1100   1.404       .  A
C1099      H1104   1.084       .  S
C1100      C1105   1.486       .  S
C1100      C1101   1.409       .  A
C1101      C1102   1.401       .  A
C1101      N1106   1.439       .  S
C1102      H1107   1.083       .  S
N1103      H1123   1.046       .  S
N1103      H1124   1.046       .  S
C1105      C1108   1.401       .  A
C1105      C1112   1.409       .  A
N1106      H1121   1.046       .  S
N1106      H1122   1.046       .  S
C1108      C1109   1.406       .  A
C1108      H1113   1.084       .  S
C1109      C1110   1.421       .  A
C1109      N1114   1.438       .  S
C1110      C1111   1.408       .  A
C1111      C1112   1.407       .  A
C1111      H1115   1.083       .  S
C1112      N1116   1.438       .  S
N1114      H1117   1.046       .  S
N1114      H1118   1.045       .  S
N1116      H1119   1.046       .  S
N1116      H1120   1.046       .  S
C1125      C1126   1.412       .  A
C1125      C1130   1.404       .  A
C1126      C1127   1.412       .  A
C1126      N1131   1.437       .  S
C1127      C1128   1.404       .  A
C1127      H1132   1.084       .  S
C1128      C1133   1.485       .  S
C1128      C1129   1.409       .  A
C1129      C1130   1.405       .  A
C1129      N1134   1.438       .  S
C1130      H1135   1.084       .  S
N1131      H1151   1.045       .  S
N1131      H1152   1.046       .  S
C1133      C1136   1.403       .  A
C1133      C1140   1.409       .  A
N1134      H1149   1.046       .  S
N1134      H1150   1.045       .  S
C1136      C1137   1.412       .  A
C1136      H1141   1.083       .  S
C1137      C1138   1.414       .  A
C1137      N1142   1.437       .  S
C1138      C1139   1.405       .  A
C1139      C1140   1.405       .  A
C1139      H1143   1.084       .  S
C1140      N1144   1.438       .  S
N1142      H1145   1.046       .  S
N1142      H1146   1.046       .  S
N1144      H1147   1.046       .  S
N1144      H1148   1.045       .  S
C1153      C1154   1.416       .  A
C1153      C1158   1.406       .  A
C1154      C1155   1.405       .  A
C1154      N1159   1.439       .  S
C1155      C1156   1.401       .  A
C1155      H1160   1.084       .  S
C1156      C1161   1.490       .  S
C1156      C1157   1.412       .  A
C1157      C1158   1.414       .  A
C1157      N1162   1.437       .  S
C1158      H1163   1.083       .  S
N1159      H1179   1.046       .  S
N1159      H1180   1.046       .  S
C1161      C1164   1.401       .  A
C1161      C1168   1.409       .  A
N1162      H1177   1.046       .  S
N1162      H1178   1.046       .  S
C1164      C1165   1.409       .  A
C1164      H1169   1.084       .  S
C1165      C1166   1.420       .  A
C1165      N1170   1.438       .  S
C1166      C1167   1.408       .  A
C1167      C1168   1.409       .  A
C1167      H1171   1.083       .  S
C1168      N1172   1.437       .  S
N1170      H1173   1.046       .  S
N1170      H1174   1.046       .  S
N1172      H1175   1.046       .  S
N1172      H1176   1.046       .  S
C1181      C1182   1.417       .  A
C1181      C1186   1.406       .  A
C1182      C1183   1.408       .  A
C1182      N1187   1.438       .  S
C1183      C1184   1.405       .  A
C1183      H1188   1.084       .  S
C1184      C1189   1.491       .  S
C1184      C1185   1.412       .  A
C1185      C1186   1.403       .  A
C1185      N1190   1.438       .  S
C1186      H1191   1.083       .  S
N1187      H1207   1.045       .  S
N1187      H1208   1.046       .  S
C1189      C1192   1.405       .  A
C1189      C1196   1.412       .  A
N1190      H1205   1.046       .  S
N1190      H1206   1.046       .  S
C1192      C1193   1.407       .  A
C1192      H1197   1.083       .  S
C1193      C1194   1.415       .  A
C1193      N1198   1.438       .  S
C1194      C1195   1.407       .  A
C1195      C1196   1.404       .  A
C1195      H1199   1.083       .  S
C1196      N1200   1.439       .  S
N1198      H1201   1.046       .  S
N1198      H1202   1.045       .  S
N1200      H1203   1.046       .  S
N1200      H1204   1.046       .  S
C1209      C1210   1.414       .  A
C1209      C1214   1.404       .  A
C1210      C1211   1.405       .  A
C1210      N1215   1.439   1_565  S
C1211      C1212   1.400       .  A
C1211      H1216   1.084       .  S
C1212      C1217   1.479       .  S
C1212      C1213   1.409       .  A
C1213      C1214   1.408       .  A
C1213      N1218   1.438       .  S
C1214      H1219   1.084       .  S
N1215      H1235   1.046       .  S
N1215      H1236   1.046       .  S
C1217      C1220   1.401       .  A
C1217      C1224   1.409       .  A
N1218      H1233   1.046       .  S
N1218      H1234   1.044       .  S
C1220      C1221   1.409       .  A
C1220      H1225   1.084       .  S
C1221      C1222   1.414       .  A
C1221      N1226   1.437       .  S
C1222      C1223   1.404       .  A
C1223      C1224   1.403       .  A
C1223      H1227   1.084       .  S
C1224      N1228   1.439       .  S
N1226      H1229   1.046       .  S
N1226      H1230   1.046       .  S
N1228      H1231   1.046   1_565  S
N1228      H1232   1.044       .  S
C1237      C1238   1.412       .  A
C1237      C1242   1.405       .  A
C1238      C1239   1.399       .  A
C1238      N1243   1.439       .  S
C1239      C1240   1.400       .  A
C1239      H1244   1.084       .  S
C1240      C1245   1.482       .  S
C1240      C1241   1.411       .  A
C1241      C1242   1.412       .  A
C1241      N1246   1.437       .  S
C1242      H1247   1.084       .  S
N1243      H1263   1.046       .  S
N1243      H1264   1.045       .  S
C1245      C1248   1.403       .  A
C1245      C1252   1.408       .  A
N1246      H1261   1.046       .  S
N1246      H1262   1.046       .  S
C1248      C1249   1.413       .  A
C1248      H1253   1.083       .  S
C1249      C1250   1.416       .  A
C1249      N1254   1.437       .  S
C1250      C1251   1.406       .  A
C1251      C1252   1.401       .  A
C1251      H1255   1.084       .  S
C1252      N1256   1.439       .  S
N1254      H1257   1.046       .  S
N1254      H1258   1.046       .  S
N1256      H1259   1.046       .  S
N1256      H1260   1.046       .  S
C1265      C1266   1.414       .  A
C1265      C1270   1.406       .  A
C1266      C1267   1.407       .  A
C1266      N1271   1.438       .  S
C1267      C1268   1.404       .  A
C1267      H1272   1.083       .  S
C1268      C1273   1.491       .  S
C1268      C1269   1.412       .  A
C1269      C1270   1.404       .  A
C1269      N1274   1.439       .  S
C1270      H1275   1.084       .  S
N1271      H1291   1.046       .  S
N1271      H1292   1.046       .  S
C1273      C1276   1.405       .  A
C1273      C1280   1.413       .  A
N1274      H1289   1.046       .  S
N1274      H1290   1.046       .  S
C1276      C1277   1.406       .  A
C1276      H1281   1.083       .  S
C1277      C1278   1.412       .  A
C1277      N1282   1.437       .  S
C1278      C1279   1.406       .  A
C1279      C1280   1.405       .  A
C1279      H1283   1.084       .  S
C1280      N1284   1.438       .  S
N1282      H1285   1.046       .  S
N1282      H1286   1.046       .  S
N1284      H1287   1.046       .  S
N1284      H1288   1.046       .  S
C1293      C1294   1.412       .  A
C1293      C1298   1.406       .  A
C1294      C1295   1.410       .  A
C1294      N1299   1.437       .  S
C1295      C1296   1.404       .  A
C1295      H1300   1.084       .  S
C1296      C1301   1.482       .  S
C1296      C1297   1.408       .  A
C1297      C1298   1.401       .  A
C1297      N1302   1.439       .  S
C1298      H1303   1.084       .  S
N1299      H1319   1.046       .  S
N1299      H1320   1.046       .  S
C1301      C1304   1.400       .  A
C1301      C1308   1.408       .  A
N1302      H1317   1.046       .  S
N1302      H1318   1.046       .  S
C1304      C1305   1.406       .  A
C1304      H1309   1.084       .  S
C1305      C1306   1.419       .  A
C1305      N1310   1.438       .  S
C1306      C1307   1.409       .  A
C1307      C1308   1.405       .  A
C1307      H1311   1.083       .  S
C1308      N1312   1.438       .  S
N1310      H1313   1.046       .  S
N1310      H1314   1.046       .  S
N1312      H1315   1.046       .  S
N1312      H1316   1.046       .  S
C1321      C1322   1.412       .  A
C1321      C1326   1.405       .  A
C1322      C1323   1.410       .  A
C1322      N1327   1.437       .  S
C1323      C1324   1.403       .  A
C1323      H1328   1.083       .  S
C1324      C1329   1.482       .  S
C1324      C1325   1.409       .  A
C1325      C1326   1.404       .  A
C1325      N1330   1.439       .  S
C1326      H1331   1.084       .  S
N1327      H1347   1.045       .  S
N1327      H1348   1.046       .  S
C1329      C1332   1.402       .  A
C1329      C1336   1.407       .  A
N1330      H1345   1.046       .  S
N1330      H1346   1.045       .  S
C1332      C1333   1.412       .  A
C1332      H1337   1.083       .  S
C1333      C1334   1.416       .  A
C1333      N1338   1.437       .  S
C1334      C1335   1.407       .  A
C1335      C1336   1.403       .  A
C1335      H1339   1.084       .  S
C1336      N1340   1.439       .  S
N1338      H1341   1.046       .  S
N1338      H1342   1.045       .  S
N1340      H1343   1.046       .  S
N1340      H1344   1.045       .  S
C1349      C1350   1.420       .  A
C1349      C1354   1.409       .  A
C1350      C1351   1.405       .  A
C1350      N1355   1.438       .  S
C1351      C1352   1.401       .  A
C1351      H1356   1.084       .  S
C1352      C1357   1.488       .  S
C1352      C1353   1.410       .  A
C1353      C1354   1.407       .  A
C1353      N1358   1.438       .  S
C1354      H1359   1.083       .  S
N1355      H1375   1.046       .  S
N1355      H1376   1.046       .  S
C1357      C1360   1.402       .  A
C1357      C1364   1.412       .  A
N1358      H1373   1.046       .  S
N1358      H1374   1.045       .  S
C1360      C1361   1.403       .  A
C1360      H1365   1.084       .  S
C1361      C1362   1.414       .  A
C1361      N1366   1.439       .  S
C1362      C1363   1.405       .  A
C1363      C1364   1.408       .  A
C1363      H1367   1.084       .  S
C1364      N1368   1.437       .  S
N1366      H1369   1.046       .  S
N1366      H1370   1.046       .  S
N1368      H1371   1.046       .  S
N1368      H1372   1.046       .  S
C1377      C1378   1.415       .  A
C1377      C1382   1.407       .  A
C1378      C1379   1.407       .  A
C1378      N1383   1.438       .  S
C1379      C1380   1.401       .  A
C1379      H1384   1.084       .  S
C1380      C1385   1.484       .  S
C1380      C1381   1.409       .  A
C1381      C1382   1.407       .  A
C1381      N1386   1.438       .  S
C1382      H1387   1.083       .  S
N1383      H1403   1.046       .  S
N1383      H1404   1.046       .  S
C1385      C1388   1.401       .  A
C1385      C1392   1.410       .  A
N1386      H1401   1.046       .  S
N1386      H1402   1.046       .  S
C1388      C1389   1.408       .  A
C1388      H1393   1.084       .  S
C1389      C1390   1.415       .  A
C1389      N1394   1.438       .  S
C1390      C1391   1.406       .  A
C1391      C1392   1.407       .  A
C1391      H1395   1.084       .  S
C1392      N1396   1.438       .  S
N1394      H1397   1.046       .  S
N1394      H1398   1.046       .  S
N1396      H1399   1.046       .  S
N1396      H1400   1.046       .  S
C1405      C1406   1.415       .  A
C1405      C1410   1.407       .  A
C1406      C1407   1.409       .  A
C1406      N1411   1.437       .  S
C1407      C1408   1.404       .  A
C1407      H1412   1.084       .  S
C1408      C1413   1.492       .  S
C1408      C1409   1.412       .  A
C1409      C1410   1.406       .  A
C1409      N1414   1.438       .  S
C1410      H1415   1.083       .  S
N1411      H1431   1.046       .  S
N1411      H1432   1.046       .  S
C1413      C1416   1.404       .  A
C1413      C1420   1.412       .  A
N1414      H1429   1.046       .  S
N1414      H1430   1.046       .  S
C1416      C1417   1.408       .  A
C1416      H1421   1.084       .  S
C1417      C1418   1.415       .  A
C1417      N1422   1.438       .  S
C1418      C1419   1.406       .  A
C1419      C1420   1.406       .  A
C1419      H1423   1.083       .  S
C1420      N1424   1.438       .  S
N1422      H1425   1.046       .  S
N1422      H1426   1.046       .  S
N1424      H1427   1.046       .  S
N1424      H1428   1.046       .  S
C1433      C1434   1.413       .  A
C1433      C1438   1.405       .  A
C1434      C1435   1.413       .  A
C1434      N1439   1.437       .  S
C1435      C1436   1.404       .  A
C1435      H1440   1.083       .  S
C1436      C1441   1.479       .  S
C1436      C1437   1.406       .  A
C1437      C1438   1.399       .  A
C1437      N1442   1.438       .  S
C1438      H1443   1.084       .  S
N1439      H1459   1.045       .  S
N1439      H1460   1.046       .  S
C1441      C1444   1.400       .  A
C1441      C1448   1.408       .  A
N1442      H1457   1.046       .  S
N1442      H1458   1.045       .  S
C1444      C1445   1.402       .  A
C1444      H1449   1.084       .  S
C1445      C1446   1.414       .  A
C1445      N1450   1.438       .  S
C1446      C1447   1.407       .  A
C1447      C1448   1.410       .  A
C1447      H1451   1.083       .  S
C1448      N1452   1.437       .  S
N1450      H1453   1.046       .  S
N1450      H1454   1.046       .  S
N1452      H1455   1.046       .  S
N1452      H1456   1.046       .  S
C1461      C1462   1.417       .  A
C1461      C1466   1.405       .  A
C1462      C1463   1.406       .  A
C1462      N1467   1.439       .  S
C1463      C1464   1.400       .  A
C1463      H1468   1.084       .  S
C1464      C1469   1.480       .  S
C1464      C1465   1.409       .  A
C1465      C1466   1.408       .  A
C1465      N1470   1.438       .  S
C1466      H1471   1.084       .  S
N1467      H1487   1.046       .  S
N1467      H1488   1.046       .  S
C1469      C1472   1.403       .  A
C1469      C1476   1.410       .  A
N1470      H1485   1.045       .  S
N1470      H1486   1.044       .  S
C1472      C1473   1.409       .  A
C1472      H1477   1.084       .  S
C1473      C1474   1.412       .  A
C1473      N1478   1.437       .  S
C1474      C1475   1.404       .  A
C1475      C1476   1.405       .  A
C1475      H1479   1.084       .  S
C1476      N1480   1.439       .  S
N1478      H1481   1.046       .  S
N1478      H1482   1.046       .  S
N1480      H1483   1.045       .  S
N1480      H1484   1.044       .  S
C1489      C1490   1.407       .  A
C1489      C1494   1.404       .  A
C1490      C1491   1.400       .  A
C1490      N1495   1.433       .  S
C1491      C1492   1.403       .  A
C1491      H1496   1.084       .  S
C1492      C1497   1.490       .  S
C1492      C1493   1.414       .  A
C1493      C1494   1.413       .  A
C1493      N1498   1.437       .  S
C1494      H1499   1.084       .  S
N1495      H1515   1.046   1_455  S
N1495      H1516   1.045       .  S
C1497      C1500   1.402       .  A
C1497      C1504   1.411       .  A
N1498      H1513   1.046       .  S
N1498      H1514   1.045       .  S
C1500      C1501   1.407       .  A
C1500      H1505   1.084       .  S
C1501      C1502   1.417       .  A
C1501      N1506   1.439       .  S
C1502      C1503   1.406       .  A
C1503      C1504   1.408       .  A
C1503      H1507   1.083       .  S
C1504      N1508   1.437       .  S
N1506      H1509   1.046       .  S
N1506      H1510   1.046   1_455  S
N1508      H1511   1.046       .  S
N1508      H1512   1.046       .  S
C1517      C1518   1.412       .  A
C1517      C1522   1.404       .  A
C1518      C1519   1.408       .  A
C1518      N1523   1.437       .  S
C1519      C1520   1.402       .  A
C1519      H1524   1.084       .  S
C1520      C1525   1.481       .  S
C1520      C1521   1.409       .  A
C1521      C1522   1.404       .  A
C1521      N1526   1.438       .  S
C1522      H1527   1.084       .  S
N1523      H1543   1.045       .  S
N1523      H1544   1.046       .  S
C1525      C1528   1.403       .  A
C1525      C1532   1.408       .  A
N1526      H1541   1.046       .  S
N1526      H1542   1.046       .  S
C1528      C1529   1.409       .  A
C1528      H1533   1.084       .  S
C1529      C1530   1.412       .  A
C1529      N1534   1.437       .  S
C1530      C1531   1.404       .  A
C1531      C1532   1.403       .  A
C1531      H1535   1.084       .  S
C1532      N1536   1.438       .  S
N1534      H1537   1.046       .  S
N1534      H1538   1.046       .  S
N1536      H1539   1.046       .  S
N1536      H1540   1.046       .  S
C1545      C1546   1.412       .  A
C1545      C1550   1.404       .  A
C1546      C1547   1.403       .  A
C1546      N1551   1.438       .  S
C1547      C1548   1.400       .  A
C1547      H1552   1.084       .  S
C1548      C1553   1.478       .  S
C1548      C1549   1.408       .  A
C1549      C1550   1.409       .  A
C1549      N1554   1.437       .  S
C1550      H1555   1.084       .  S
N1551      H1571   1.046       .  S
N1551      H1572   1.046   1_554  S
C1553      C1556   1.400       .  A
C1553      C1560   1.408       .  A
N1554      H1569   1.046       .  S
N1554      H1570   1.046       .  S
C1556      C1557   1.403       .  A
C1556      H1561   1.084       .  S
C1557      C1558   1.412       .  A
C1557      N1562   1.438       .  S
C1558      C1559   1.404       .  A
C1559      C1560   1.408       .  A
C1559      H1563   1.084       .  S
C1560      N1564   1.437       .  S
N1562      H1565   1.046   1_554  S
N1562      H1566   1.046       .  S
N1564      H1567   1.046       .  S
N1564      H1568   1.046       .  S
C1573      C1574   1.418       .  A
C1573      C1578   1.407       .  A
C1574      C1575   1.408       .  A
C1574      N1579   1.438       .  S
C1575      C1576   1.404       .  A
C1575      H1580   1.084       .  S
C1576      C1581   1.493       .  S
C1576      C1577   1.411       .  A
C1577      C1578   1.407       .  A
C1577      N1582   1.438       .  S
C1578      H1583   1.083       .  S
N1579      H1599   1.046   1_556  S
N1579      H1600   1.046   1_556  S
C1581      C1584   1.404       .  A
C1581      C1588   1.412       .  A
N1582      H1597   1.046       .  S
N1582      H1598   1.045       .  S
C1584      C1585   1.407       .  A
C1584      H1589   1.083       .  S
C1585      C1586   1.417       .  A
C1585      N1590   1.439   1_556  S
C1586      C1587   1.406       .  A
C1587      C1588   1.407       .  A
C1587      H1591   1.083       .  S
C1588      N1592   1.438       .  S
N1590      H1593   1.046       .  S
N1590      H1594   1.046       .  S
N1592      H1595   1.046       .  S
N1592      H1596   1.045       .  S
C1601      C1602   1.419       .  A
C1601      C1606   1.410       .  A
C1602      C1603   1.405       .  A
C1602      N1607   1.438       .  S
C1603      C1604   1.399       .  A
C1603      H1608   1.084       .  S
C1604      C1609   1.487       .  S
C1604      C1605   1.409       .  A
C1605      C1606   1.413       .  A
C1605      N1610   1.437       .  S
C1606      H1611   1.083       .  S
N1607      H1627   1.045       .  S
N1607      H1628   1.046       .  S
C1609      C1612   1.404       .  A
C1609      C1616   1.406       .  A
N1610      H1625   1.046       .  S
N1610      H1626   1.045       .  S
C1612      C1613   1.416       .  A
C1612      H1617   1.083       .  S
C1613      C1614   1.419       .  A
C1613      N1618   1.437       .  S
C1614      C1615   1.408       .  A
C1615      C1616   1.401       .  A
C1615      H1619   1.083   1_455  S
C1616      N1620   1.439   1_455  S
N1618      H1621   1.046       .  S
N1618      H1622   1.046       .  S
N1620      H1623   1.046       .  S
N1620      H1624   1.046       .  S
C1629      C1630   1.415       .  A
C1629      C1634   1.407       .  A
C1630      C1631   1.410       .  A
C1630      N1635   1.438       .  S
C1631      C1632   1.407       .  A
C1631      H1636   1.083       .  S
C1632      C1637   1.497       .  S
C1632      C1633   1.412       .  A
C1633      C1634   1.405       .  A
C1633      N1638   1.438       .  S
C1634      H1639   1.083       .  S
N1635      H1655   1.046       .  S
N1635      H1656   1.046       .  S
C1637      C1640   1.406       .  A
C1637      C1644   1.413       .  A
N1638      H1653   1.046       .  S
N1638      H1654   1.046   1_565  S
C1640      C1641   1.410       .  A
C1640      H1645   1.083       .  S
C1641      C1642   1.415       .  A
C1641      N1646   1.437       .  S
C1642      C1643   1.407       .  A
C1643      C1644   1.407       .  A
C1643      H1647   1.083       .  S
C1644      N1648   1.438       .  S
N1646      H1649   1.046       .  S
N1646      H1650   1.045       .  S
N1648      H1651   1.046   1_565  S
N1648      H1652   1.046   1_565  S
C1657      C1658   1.410       .  A
C1657      C1662   1.402       .  A
C1658      C1659   1.404       .  A
C1658      N1663   1.438       .  S
C1659      C1660   1.402       .  A
C1659      H1664   1.084       .  S
C1660      C1665   1.487       .  S
C1660      C1661   1.413       .  A
C1661      C1662   1.410       .  A
C1661      N1666   1.437       .  S
C1662      H1667   1.084       .  S
N1663      H1683   1.046       .  S
N1663      H1684   1.045       .  S
C1665      C1668   1.403       .  A
C1665      C1672   1.412       .  A
N1666      H1681   1.046       .  S
N1666      H1682   1.045       .  S
C1668      C1669   1.405       .  A
C1668      H1673   1.084       .  S
C1669      C1670   1.411       .  A
C1669      N1674   1.438       .  S
C1670      C1671   1.402       .  A
C1671      C1672   1.409       .  A
C1671      H1675   1.084       .  S
C1672      N1676   1.437       .  S
N1674      H1677   1.046       .  S
N1674      H1678   1.046       .  S
N1676      H1679   1.046       .  S
N1676      H1680   1.046       .  S
C1685      C1686   1.414       .  A
C1685      C1690   1.406       .  A
C1686      C1687   1.408       .  A
C1686      N1691   1.438       .  S
C1687      C1688   1.404       .  A
C1687      H1692   1.084       .  S
C1688      C1693   1.488       .  S
C1688      C1689   1.410       .  A
C1689      C1690   1.405       .  A
C1689      N1694   1.438       .  S
C1690      H1695   1.084       .  S
N1691      H1711   1.046       .  S
N1691      H1712   1.046       .  S
C1693      C1696   1.403       .  A
C1693      C1700   1.410       .  A
N1694      H1709   1.046       .  S
N1694      H1710   1.046   1_655  S
C1696      C1697   1.409       .  A
C1696      H1701   1.084       .  S
C1697      C1698   1.416       .  A
C1697      N1702   1.438       .  S
C1698      C1699   1.406       .  A
C1699      C1700   1.406       .  A
C1699      H1703   1.083       .  S
C1700      N1704   1.438       .  S
N1702      H1705   1.046       .  S
N1702      H1706   1.046       .  S
N1704      H1707   1.045       .  S
N1704      H1708   1.046   1_655  S
