geometry optimzed in LAMMPS
_audit_creation_date              2020-11-30 
_audit_creation_method            'lammps2cif' 
_symmetry_space_group_name_H-M    'P1' 
_symmetry_Int_Tables_number       1 
_symmetry_cell_setting            triclinic 
loop_ 
_symmetry_equiv_pos_as_xyz 
  x,y,z 
_cell_length_a                    43.60760632040133 
_cell_length_b                    45.007746172155215 
_cell_length_c                    39.64853483369786 
_cell_angle_alpha                 90.30734320727926 
_cell_angle_beta                  90.52516766318571 
_cell_angle_gamma                 121.96681067778206 
loop_ 
_atom_site_label 
_atom_site_type_symbol 
_atom_site_fract_x 
_atom_site_fract_y 
_atom_site_fract_z 
_atom_site_charge 
O1          O  0.04744036  0.28620645  0.27996052    -0.71060
O2          O  0.00298059  0.21351341  0.21314624    -0.71090
O3          O  0.04823949  0.28418378  0.21195671    -0.71140
O4          O  0.00204435  0.21580663  0.28099240    -0.71190
O5          O  0.45320835  0.22057891  0.27683304    -0.71120
O6          O  0.50154722  0.29035188  0.20967373    -0.71100
O7          O  0.45594494  0.21968195  0.20897854    -0.71080
O8          O  0.49899738  0.29095880  0.27755451    -0.71140
Ni9        Ni  0.02688632  0.24969381  0.24657391     1.25410
Ni10       Ni  0.47574396  0.25566991  0.24311229     1.25360
C11         C  0.03090198  0.30118217  0.28942843     0.91120
C12         C  0.47255910  0.20460341  0.19991735     0.91050
C13         C  0.03194158  0.29855476  0.19986726     0.91080
C14         C  0.46890730  0.20574163  0.28907804     0.91250
O15         O  0.20907360  0.20527154  0.03960164    -0.71060
O16         O  0.22750908  0.27093664  0.46957131    -0.71090
O17         O  0.20542377  0.20189845  0.47051272    -0.71140
O18         O  0.23158166  0.27458124  0.03840629    -0.71190
O19         O  0.28889950  0.28849770  0.03762322    -0.71120
O20         O  0.26280578  0.21611302  0.46860336    -0.71100
O21         O  0.28485741  0.28503593  0.46761912    -0.71080
O22         O  0.26641434  0.21926181  0.03887937    -0.71140
Ni23       Ni  0.21637451  0.23721807  0.50426552     1.25410
Ni24       Ni  0.27779793  0.25227035  0.50214350     1.25360
C25         C  0.23425271  0.20093370  0.05022272     0.91120
C26         C  0.25933836  0.28914482  0.45757675     0.91050
C27         C  0.22982383  0.19714919  0.45876530     0.91080
C28         C  0.26451960  0.29363262  0.04854027     0.91250
O29         O  0.45513182  0.23878927  0.46793319    -0.71060
O30         O  0.49834140  0.21628305  0.03806815    -0.71090
O31         O  0.45256409  0.23993854  0.03657496    -0.71140
O32         O  0.50051032  0.21466711  0.47041443    -0.71190
O33         O  0.04616253  0.27048817  0.47072137    -0.71120
O34         O  0.00185156  0.29563197  0.03795296    -0.71100
O35         O  0.04803691  0.27227500  0.03909226    -0.71080
O36         O  0.00029977  0.29394456  0.47000542    -0.71140
Ni37       Ni  0.47555483  0.22537943  0.50313214     1.25410
Ni38       Ni  0.02493644  0.28443475  0.50445943     1.25360
C39         C  0.47165157  0.27013813  0.45700779     0.91120
C40         C  0.03188301  0.24062100  0.04929507     0.91050
C41         C  0.46853773  0.27150143  0.04770727     0.91080
C42         C  0.03000552  0.23890016  0.45973059     0.91250
C43         C  0.38567087  0.06996259  0.10579311     0.06500
C44         C  0.39832152  0.10205117  0.12227776    -0.09650
C45         C  0.42981860  0.11687711  0.14213769     0.04000
C46         C  0.44874882  0.09977525  0.14535896    -0.08180
C47         C  0.43656293  0.06788870  0.12849606     0.06490
C48         C  0.40447129  0.05277868  0.10909302    -0.07600
H49         H  0.38380289  0.11541499  0.11961624     0.12080
H50         H  0.47332405  0.11158827  0.16057941     0.09610
H51         H  0.39384865  0.02765634  0.09661543     0.09460
C52         C  0.07505930  0.38284860  0.13933905     0.06500
C53         C  0.10721586  0.39807424  0.12122162    -0.09650
C54         C  0.11911930  0.42935393  0.10400727     0.04000
C55         C  0.09896592  0.44531510  0.10487377    -0.08180
C56         C  0.06628938  0.42980385  0.12252956     0.06490
C57         C  0.05477764  0.39869486  0.13999933    -0.07600
H58         H  0.12284279  0.38571586  0.12053946     0.12080
H59         H  0.10918963  0.46989162  0.09199589     0.09610
H60         H  0.02982395  0.38664234  0.15403050     0.09460
C61         C  0.48077073  0.01475233  0.10940097     0.05650
C62         C  0.46395132  0.47788408  0.10745516     0.05650
C63         C  0.48494184  0.46240366  0.10593188     0.05650
C64         C  0.02288512  0.48378618  0.10455383     0.05650
C65         C  0.03973170  0.02044984  0.11031133     0.05650
C66         C  0.01897723  0.03581764  0.11393838     0.05650
C67         C  0.30478506  0.42354249  0.14561665     0.06500
C68         C  0.28606490  0.39188299  0.12726347    -0.09650
C69         C  0.30542062  0.38057504  0.10868735     0.04000
C70         C  0.34333975  0.40104160  0.10846981    -0.08180
C71         C  0.36216178  0.43295491  0.12657724     0.06490
C72         C  0.34255746  0.44375194  0.14521281    -0.07600
H73         H  0.25678541  0.37611689  0.12760220     0.12080
H74         H  0.35788598  0.39157629  0.09469847     0.09610
H75         H  0.35682102  0.46814291  0.15952410     0.09460
C76         C  0.07190778  0.19415228  0.10511850     0.06500
C77         C  0.10168035  0.20822629  0.12723147    -0.09650
C78         C  0.11184910  0.18629768  0.14162391     0.04000
C79         C  0.09219842  0.15038475  0.13393700    -0.08180
C80         C  0.06182334  0.13595179  0.11210392     0.06490
C81         C  0.05219315  0.15822463  0.09754919    -0.07600
H82         H  0.11691808  0.23604687  0.13307193     0.12080
H83         H  0.10114054  0.13409764  0.14462792     0.09610
H84         H  0.02913798  0.14753591  0.08039123     0.09460
C85         C  0.20018555  0.07484571  0.14816635     0.06500
C86         C  0.21806253  0.10634152  0.13020152    -0.09650
C87         C  0.19783572  0.11740740  0.11249399     0.04000
C88         C  0.15996430  0.09695313  0.11286058    -0.08180
C89         C  0.14190053  0.06503064  0.13030710     0.06490
C90         C  0.16237949  0.05448890  0.14809761    -0.07600
H91         H  0.24734521  0.12206466  0.13003848     0.12080
H92         H  0.14498840  0.10640315  0.09970044     0.09610
H93         H  0.14879428  0.03010713  0.16187579     0.09460
C94         C  0.42227943  0.30969474  0.10811912     0.06500
C95         C  0.43999942  0.34630666  0.10754929    -0.09650
C96         C  0.42615988  0.36363113  0.12553071     0.04000
C97         C  0.39479772  0.34374188  0.14449071    -0.08180
C98         C  0.37713172  0.30719426  0.14520501     0.06490
C99         C  0.39078086  0.29007658  0.12691509    -0.07600
H100        H  0.46475721  0.36095819  0.09351951     0.12080
H101        H  0.38403229  0.35676386  0.15877415     0.09610
H102        H  0.37713061  0.26176449  0.12744891     0.09460
C103        C  0.38241431  0.07338739  0.38339575     0.06500
C104        C  0.39365013  0.10510927  0.36728241    -0.09650
C105        C  0.42410743  0.11999584  0.34677048     0.04000
C106        C  0.44333260  0.10342788  0.34240421    -0.08180
C107        C  0.43278735  0.07211582  0.35883669     0.06490
C108        C  0.40178797  0.05682884  0.37908819    -0.07600
H109        H  0.37884858  0.11808844  0.37068139     0.12080
H110        H  0.46700582  0.11529571  0.32655509     0.09610
H111        H  0.39240760  0.03203629  0.39130115     0.09460
C112        C  0.07215737  0.38652810  0.34996621     0.06500
C113        C  0.10332792  0.40183565  0.37030255    -0.09650
C114        C  0.11442919  0.43321781  0.38761524     0.04000
C115        C  0.09417385  0.44907026  0.38471022    -0.08180
C116        C  0.06257196  0.43344745  0.36445202     0.06490
C117        C  0.05206385  0.40236719  0.34693335    -0.07600
H118        H  0.11891720  0.38950952  0.37251558     0.12080
H119        H  0.10347260  0.47369983  0.39771576     0.09610
H120        H  0.02796796  0.39030102  0.33101098     0.09460
C121        C  0.47870683  0.02006720  0.37270917     0.05650
C122        C  0.46028399  0.48375944  0.37007783     0.05650
C123        C  0.47880783  0.46582998  0.37178707     0.05650
C124        C  0.01685071  0.48583673  0.37812863     0.05650
C125        C  0.03587513  0.02171060  0.37916282     0.05650
C126        C  0.01725397  0.03925613  0.37576761     0.05650
C127        C  0.19800621  0.07221026  0.35846360     0.06500
C128        C  0.21480606  0.10286413  0.37842323    -0.09650
C129        C  0.19367520  0.11381334  0.39428172     0.04000
C130        C  0.15603359  0.09417316  0.39009493    -0.08180
C131        C  0.13895851  0.06310423  0.37061540     0.06490
C132        C  0.16030601  0.05256113  0.35473020    -0.07600
H133        H  0.24397002  0.11810124  0.38144715     0.12080
H134        H  0.14048466  0.10371360  0.40176411     0.09610
H135        H  0.14749784  0.02887317  0.33933596     0.09460
C136        C  0.07203522  0.19623089  0.40082452     0.06500
C137        C  0.05199116  0.15987574  0.40472006    -0.09650
C138        C  0.06223704  0.13885248  0.38849301     0.04000
C139        C  0.09360281  0.15490099  0.36871800    -0.08180
C140        C  0.11366249  0.19130477  0.36460146     0.06490
C141        C  0.10284391  0.21205933  0.38065556    -0.07600
H142        H  0.02811103  0.14785789  0.42029634     0.12080
H143        H  0.10291405  0.13944149  0.35678631     0.09610
H144        H  0.11831345  0.24023911  0.37759291     0.09460
C145        C  0.30246354  0.41851743  0.36087339     0.06500
C146        C  0.34029483  0.43641732  0.36303190    -0.09650
C147        C  0.35741771  0.42235677  0.38140209     0.04000
C148        C  0.33614985  0.39055615  0.39798187    -0.08180
C149        C  0.29842328  0.37258801  0.39617141     0.06490
C150        C  0.28140324  0.38645596  0.37748773    -0.07600
H151        H  0.35601695  0.46151178  0.35084381     0.12080
H152        H  0.34907641  0.37970510  0.41253987     0.09610
H153        H  0.25215631  0.37259895  0.37607730     0.09460
C154        C  0.42800153  0.31037185  0.39645302     0.06500
C155        C  0.44721925  0.34682366  0.40002685    -0.09650
C156        C  0.43531709  0.36652386  0.38380978     0.04000
C157        C  0.40326892  0.34912962  0.36423493    -0.08180
C158        C  0.38384666  0.31253077  0.36069981     0.06490
C159        C  0.39629219  0.29311056  0.37675876    -0.07600
H160        H  0.47166520  0.35995473  0.41546667     0.12080
H161        H  0.39292965  0.36373587  0.35228180     0.09610
H162        H  0.38128397  0.26481070  0.37417314     0.09460
O163        O  0.23463940  0.45287461  0.28804803    -0.71060
O164        O  0.21393290  0.50064976  0.22019389    -0.71090
O165        O  0.23459465  0.45324606  0.21980753    -0.71140
O166        O  0.21370684  0.50021359  0.28831827    -0.71190
O167        O  0.27209713  0.04323673  0.28852662    -0.71120
O168        O  0.29216405  0.99622761  0.21912230    -0.71100
O169        O  0.27194233  0.04401631  0.22028532    -0.71080
O170        O  0.29255760  0.99549147  0.28736895    -0.71140
Ni171      Ni  0.22215488  0.47519183  0.25408166     1.25410
Ni172      Ni  0.28428308  0.02128954  0.25387199     1.25360
C173        C  0.26709653  0.46690786  0.29929048     0.91120
C174        C  0.23947645  0.03020367  0.20919587     0.91050
C175        C  0.26702201  0.46744048  0.20936113     0.91080
C176        C  0.23963880  0.02913816  0.29895764     0.91250
O177        O  0.29098996  0.49770615  0.02907325    -0.71060
O178        O  0.21519209  0.45831912  0.46050528    -0.71090
O179        O  0.28858574  0.49806651  0.46059153    -0.71140
O180        O  0.21792767  0.45746475  0.02920363    -0.71190
O181        O  0.21378930  0.00475881  0.03059887    -0.71120
O182        O  0.28589423  0.04619121  0.46153442    -0.71100
O183        O  0.21257925  0.00590354  0.46256902    -0.71080
O184        O  0.28686919  0.04513425  0.03030433    -0.71140
Ni185      Ni  0.25385605  0.47652120  0.99498060     1.25410
Ni186      Ni  0.24954268  0.02744593  0.99646947     1.25360
C187        C  0.30042436  0.02741516  0.04009956     0.91120
C188        C  0.20173280  0.47634218  0.45131746     0.91050
C189        C  0.29898690  0.02892879  0.44924019     0.91080
C190        C  0.20476836  0.47471758  0.04127525     0.91250
O191        O  0.20418481  0.20313256  0.22133323    -0.71060
O192        O  0.27907632  0.23665120  0.28894882    -0.71090
O193        O  0.20604813  0.20647830  0.28956923    -0.71140
O194        O  0.27703932  0.23319685  0.22081625    -0.71190
O195        O  0.28401480  0.28603743  0.21895039    -0.71120
O196        O  0.21311740  0.25934571  0.28762026    -0.71100
O197        O  0.28605863  0.28948534  0.28697162    -0.71080
O198        O  0.21129101  0.25602436  0.21944660    -0.71140
Ni199      Ni  0.24129659  0.21793642  0.25526724     1.25410
Ni200      Ni  0.24886187  0.27460520  0.25319808     1.25360
C201        C  0.19546996  0.22410492  0.20945074     0.91120
C202        C  0.29516016  0.26872055  0.29859161     0.91050
C203        C  0.19773612  0.22840476  0.29956284     0.91080
C204        C  0.29233671  0.26415071  0.20891412     0.91250
C205        C  0.32486455  0.28214267  0.32217633    -0.09900
C206        C  0.35125619  0.29514383  0.34038125    -0.11460
C207        C  0.28596992  0.43351200  0.34118389    -0.09900
C208        C  0.27579548  0.44821132  0.32302036    -0.11460
C209        C  0.14491971  0.20688063  0.34329327    -0.09900
C210        C  0.16983362  0.21766374  0.32408760    -0.11460
C211        C  0.23077952  0.04741300  0.32301360    -0.09900
C212        C  0.21862898  0.06056964  0.34073645    -0.11460
C213        C  0.07550450  0.04284983  0.38584221    -0.13060
C214        C  0.09914467  0.04145636  0.36543093    -0.28240
H215        H  0.08470170  0.06083727  0.40716182     0.15960
H216        H  0.08871942  0.02314940  0.34421944     0.16530
C217        C  0.03846472  0.07757670  0.37056496    -0.13060
C218        C  0.03983760  0.10041415  0.39324113    -0.28240
H219        H  0.05447423  0.08662805  0.34789773     0.15960
H220        H  0.02304322  0.09047295  0.41546176     0.16530
C221        C  0.45809090  0.42737049  0.36575610    -0.13060
C222        C  0.45651591  0.40500486  0.38889653    -0.28240
H223        H  0.44238217  0.41761853  0.34250822     0.15960
H224        H  0.47241835  0.41540679  0.41203003     0.16530
C225        C  0.42063554  0.46478658  0.36382967    -0.13060
C226        C  0.39725769  0.44048030  0.38519059    -0.28240
H227        H  0.41118700  0.47298954  0.34256772     0.15960
H228        H  0.40794168  0.43324400  0.40633686     0.16530
C229        C  0.04042711  0.44920113  0.36000337    -0.13060
C230        C  0.03747334  0.46860412  0.38396530    -0.28240
H231        H  0.02519963  0.44388571  0.33653988     0.15960
H232        H  0.05244076  0.47432076  0.40758283     0.16530
C233        C  0.14639080  0.44894477  0.40869078    -0.09900
C234        C  0.17236362  0.46166368  0.42735912    -0.11460
C235        C  0.45479874  0.05625883  0.35415408    -0.13060
C236        C  0.45748284  0.03663662  0.37778494    -0.28240
H237        H  0.47051397  0.06205341  0.33131791     0.15960
H238        H  0.44275810  0.03098936  0.40116172     0.16530
C239        C  0.35158007  0.05810689  0.40511230    -0.09900
C240        C  0.32683188  0.04492576  0.42454431    -0.11460
C241        C  0.34548524  0.28785310  0.16556471    -0.09900
C242        C  0.32025188  0.27518889  0.18445664    -0.11460
C243        C  0.23088136  0.04895471  0.18551541    -0.09900
C244        C  0.21968469  0.06273217  0.16736315    -0.11460
C245        C  0.16695422  0.21143937  0.18467719    -0.09900
C246        C  0.14224042  0.20042290  0.16463195    -0.11460
C247        C  0.28619790  0.43574022  0.16585080    -0.09960
C248        C  0.27553053  0.44930841  0.18483711    -0.11460
C249        C  0.07968023  0.04369785  0.10851124    -0.13060
C250        C  0.10186380  0.04204355  0.13105161    -0.28240
H251        H  0.09014382  0.06314693  0.08884782     0.15960
H252        H  0.09003968  0.02217432  0.15043106     0.16530
C253        C  0.03802990  0.07340602  0.12372137    -0.13060
C254        C  0.04025369  0.09805893  0.10322772    -0.28240
H255        H  0.05239695  0.08060552  0.14774671     0.15960
H256        H  0.02518612  0.09005976  0.07949319     0.16530
C257        C  0.46724927  0.42372547  0.10281522    -0.13060
C258        C  0.44405576  0.40232607  0.12625045    -0.28240
H259        H  0.47509909  0.41350805  0.08204594     0.15960
H260        H  0.43733731  0.41385250  0.14684384     0.16530
C261        C  0.42388542  0.45523474  0.10408684    -0.13060
C262        C  0.40218485  0.45530054  0.12788713    -0.28240
H263        H  0.41277052  0.43730690  0.08270590     0.15960
H264        H  0.41445786  0.47336366  0.14915570     0.16530
C265        C  0.04521926  0.46806851  0.10106487    -0.13060
C266        C  0.04384364  0.44552583  0.12399229    -0.28240
H267        H  0.06392572  0.47675243  0.08030024     0.15960
H268        H  0.02470385  0.43767409  0.14444815     0.16530
C269        C  0.17674588  0.45855430  0.06567916    -0.09900
C270        C  0.15136744  0.44484381  0.08430880    -0.11460
C271        C  0.45799866  0.05118782  0.13151942    -0.13060
C272        C  0.45886732  0.03107019  0.10686540    -0.28240
H273        H  0.47486697  0.05689619  0.15390985     0.15960
H274        H  0.44241243  0.02523022  0.08421626     0.16530
C275        C  0.32893651  0.04231990  0.06483220    -0.09900
C276        C  0.35412942  0.05505371  0.08434945    -0.11460
C277        C  0.45047994  0.28135118  0.07108944    -0.09900
C278        C  0.43665133  0.29265901  0.08893487    -0.11460
C279        C  0.04947505  0.23021349  0.07277786    -0.09900
C280        C  0.06143959  0.21616003  0.08929183    -0.11460
C281        C  0.04769541  0.22899993  0.43603445    -0.09900
C282        C  0.06060683  0.21661833  0.41844949    -0.11460
C283        C  0.44082733  0.29129304  0.41435477    -0.09900
C284        C  0.45425561  0.27967594  0.43239491    -0.11460
C285        C  0.22566088  0.17398449  0.07453867    -0.09900
C286        C  0.21517073  0.14919156  0.09299163    -0.11460
C287        C  0.20981156  0.14486470  0.41542636    -0.09900
C288        C  0.21985463  0.16943383  0.43453796    -0.11460
C289        C  0.28695838  0.34811636  0.08953548    -0.09900
C290        C  0.27492857  0.32223623  0.07182054    -0.11460
C291        C  0.26719251  0.31570408  0.43316951    -0.09900
C292        C  0.27824023  0.34054417  0.41478985    -0.11460
C293        C  0.44291159  0.14952934  0.15963218    -0.09900
C294        C  0.45565518  0.17580989  0.17655961    -0.11460
C295        C  0.45014836  0.17795577  0.31247629    -0.09900
C296        C  0.43631346  0.15225259  0.32965031    -0.11460
C297        C  0.06055569  0.35487305  0.33131983    -0.09900
C298        C  0.04794311  0.32942520  0.31328153    -0.11460
C299        C  0.06267515  0.35128648  0.15799494    -0.09900
C300        C  0.04972065  0.32605779  0.17588859    -0.11460
O301        O  0.04685230  0.28382314  0.78316514    -0.71060
O302        O  0.00458490  0.21337160  0.71404044    -0.71090
O303        O  0.04972309  0.28414438  0.71515402    -0.71140
O304        O  0.00148853  0.21323703  0.78178656    -0.71190
O305        O  0.45196759  0.22011088  0.77667615    -0.71120
O306        O  0.50036514  0.28964600  0.70931547    -0.71100
O307        O  0.45489580  0.21893562  0.70880643    -0.71080
O308        O  0.49760469  0.29048638  0.77715641    -0.71140
Ni309      Ni  0.02739581  0.24843607  0.74863439     1.25410
Ni310      Ni  0.47450941  0.25505385  0.74281896     1.25360
C311        C  0.02999182  0.29846766  0.79268080     0.91120
C312        C  0.47164037  0.20392756  0.69993601     0.91050
C313        C  0.03365794  0.29878050  0.70312432     0.91080
C314        C  0.46776262  0.20547259  0.78917709     0.91250
O315        O  0.20914073  0.20446250  0.53881398    -0.71060
O316        O  0.22897136  0.27205891  0.97015091    -0.71090
O317        O  0.20683463  0.20302406  0.97130401    -0.71140
O318        O  0.23173526  0.27373747  0.53780335    -0.71190
O319        O  0.28897138  0.28754007  0.53573733    -0.71120
O320        O  0.26425592  0.21723393  0.97061189    -0.71100
O321        O  0.28636630  0.28618037  0.96946336    -0.71080
O322        O  0.26641113  0.21835550  0.53685816    -0.71140
Ni323      Ni  0.21704138  0.23819517  0.00492305     1.25410
Ni324      Ni  0.27852728  0.25330858  0.00414278     1.25360
C325        C  0.23453127  0.20019668  0.54886561     0.91120
C326        C  0.26107049  0.29030259  0.95873037     0.91050
C327        C  0.23146811  0.19830477  0.96019100     0.91080
C328        C  0.26488284  0.29270848  0.54738893     0.91250
O329        O  0.45377190  0.23964131  0.96848209    -0.71060
O330        O  0.49925628  0.21574270  0.53824592    -0.71090
O331        O  0.45420708  0.24019272  0.53602993    -0.71140
O332        O  0.49978884  0.21637061  0.97020417    -0.71190
O333        O  0.04885414  0.27257393  0.97103363    -0.71120
O334        O  0.00038544  0.29455644  0.53809564    -0.71100
O335        O  0.04613206  0.27071301  0.53882813    -0.71080
O336        O  0.00247735  0.29543460  0.96988284    -0.71140
Ni337      Ni  0.47441803  0.22607801  0.00330543     1.25410
Ni338      Ni  0.02698693  0.28599787  0.00455615     1.25360
C339        C  0.47005736  0.27112868  0.95795895     0.91120
C340        C  0.02989642  0.23914177  0.54925768     0.91050
C341        C  0.47059044  0.27191679  0.54676889     0.91080
C342        C  0.03308080  0.24106338  0.95990668     0.91250
C343        C  0.38644155  0.06949542  0.60535201     0.06500
C344        C  0.39871621  0.10147790  0.62188590    -0.09650
C345        C  0.42992247  0.11633201  0.64214215     0.04000
C346        C  0.44896903  0.09937598  0.64570760    -0.08180
C347        C  0.43716171  0.06757741  0.62881425     0.06490
C348        C  0.40532243  0.05242383  0.60901247    -0.07600
H349        H  0.38411820  0.11473810  0.61896534     0.12080
H350        H  0.47332978  0.11122611  0.66123789     0.09610
H351        H  0.39493725  0.02735219  0.59651434     0.09460
C352        C  0.07654988  0.38322139  0.64261322     0.06500
C353        C  0.10803456  0.39782610  0.62353013    -0.09650
C354        C  0.11934811  0.42855885  0.60553800     0.04000
C355        C  0.09929427  0.44461291  0.60660268    -0.08180
C356        C  0.06723370  0.42970723  0.62518869     0.06490
C357        C  0.05631800  0.39913149  0.64342656    -0.07600
H358        H  0.12357529  0.38538492  0.62266765     0.12080
H359        H  0.10913810  0.46878251  0.59309670     0.09610
H360        H  0.03183393  0.38750621  0.65813547     0.09460
C361        C  0.48165337  0.01445896  0.61082772     0.05650
C362        C  0.46506868  0.47762259  0.60934488     0.05650
C363        C  0.48692138  0.46311242  0.60800419     0.05650
C364        C  0.02359802  0.48358796  0.60727685     0.05650
C365        C  0.04084265  0.02058150  0.61038507     0.05650
C366        C  0.01986294  0.03568968  0.61413157     0.05650
C367        C  0.30575201  0.42132715  0.64625567     0.06500
C368        C  0.28719644  0.39004083  0.62734170    -0.09650
C369        C  0.30672955  0.37869816  0.60911914     0.04000
C370        C  0.34469435  0.39882414  0.60978420    -0.08180
C371        C  0.36329629  0.43037597  0.62849235     0.06490
C372        C  0.34351029  0.44108698  0.64688118    -0.07600
H373        H  0.25789523  0.37466500  0.62685093     0.12080
H374        H  0.35945639  0.38953269  0.59609981     0.09610
H375        H  0.35762748  0.46526057  0.66154301     0.09460
C376        C  0.07096775  0.19353625  0.60508435     0.06500
C377        C  0.10120739  0.20805631  0.62667468    -0.09650
C378        C  0.11197862  0.18649171  0.64086392     0.04000
C379        C  0.09245252  0.15050827  0.63349257    -0.08180
C380        C  0.06165974  0.13565760  0.61216847     0.06490
C381        C  0.05140755  0.15754977  0.59784774    -0.07600
H382        H  0.11635882  0.23593479  0.63223019     0.12080
H383        H  0.10183467  0.13449534  0.64398295     0.09610
H384        H  0.02802554  0.14652281  0.58106476     0.09460
C385        C  0.20133276  0.07583827  0.64882602     0.06500
C386        C  0.21915943  0.10700253  0.63036974    -0.09650
C387        C  0.19888612  0.11776058  0.61229457     0.04000
C388        C  0.16101958  0.09734861  0.61278455    -0.08180
C389        C  0.14299560  0.06572286  0.63070681     0.06490
C390        C  0.16352477  0.05549340  0.64888614    -0.07600
H391        H  0.24844103  0.12268736  0.63007859     0.12080
H392        H  0.14602477  0.10657979  0.59929737     0.09610
H393        H  0.14998330  0.03133358  0.66301369     0.09460
C394        C  0.42540990  0.31061820  0.60814914     0.06500
C395        C  0.44359000  0.34728033  0.60861263    -0.09650
C396        C  0.42976478  0.36435732  0.62702108     0.04000
C397        C  0.39806782  0.34425246  0.64541962    -0.08180
C398        C  0.37990014  0.30768405  0.64504721     0.06490
C399        C  0.39348270  0.29075127  0.62633874    -0.07600
H400        H  0.46858399  0.36217241  0.59495320     0.12080
H401        H  0.38729074  0.35712397  0.65993947     0.09610
H402        H  0.37939375  0.26239625  0.62599666     0.09460
C403        C  0.38335868  0.07446867  0.88536638     0.06500
C404        C  0.39399532  0.10585041  0.86885063    -0.09650
C405        C  0.42452791  0.12103265  0.84844686     0.04000
C406        C  0.44446577  0.10512897  0.84459819    -0.08180
C407        C  0.43447932  0.07409956  0.86132921     0.06490
C408        C  0.40340837  0.05852199  0.88153306    -0.07600
H409        H  0.37860456  0.11829137  0.87177790     0.12080
H410        H  0.46812904  0.11718976  0.82873346     0.09610
H411        H  0.39437445  0.03389869  0.89394074     0.09460
C412        C  0.07081100  0.38376406  0.85317607     0.06500
C413        C  0.10232464  0.39948657  0.87306165    -0.09650
C414        C  0.11408506  0.43154318  0.88931037     0.04000
C415        C  0.09415615  0.44767386  0.88579764    -0.08180
C416        C  0.06221830  0.43167753  0.86599659     0.06490
C417        C  0.05101234  0.39986788  0.84957336    -0.07600
H418        H  0.11774438  0.38701896  0.87564295     0.12080
H419        H  0.10402347  0.47284214  0.89790842     0.09610
H420        H  0.02670688  0.38753587  0.83393212     0.09460
C421        C  0.48005567  0.02149337  0.87405539     0.05650
C422        C  0.46228467  0.48562806  0.86985720     0.05650
C423        C  0.48085918  0.46774557  0.87117548     0.05650
C424        C  0.01840040  0.48621170  0.87736512     0.05650
C425        C  0.03750346  0.02423371  0.87926951     0.05650
C426        C  0.01922831  0.04204220  0.87549796     0.05650
C427        C  0.19936260  0.07339812  0.85967269     0.06500
C428        C  0.21633961  0.10391668  0.87980819    -0.09650
C429        C  0.19540566  0.11507730  0.89568453     0.04000
C430        C  0.15776729  0.09576891  0.89135025    -0.08180
C431        C  0.14052806  0.06485512  0.87164037     0.06490
C432        C  0.16169084  0.05410105  0.85575317    -0.07600
H433        H  0.24549448  0.11890105  0.88293839     0.12080
H434        H  0.14236103  0.10545224  0.90305325     0.09610
H435        H  0.14875978  0.03052894  0.84018936     0.09460
C436        C  0.07593002  0.19899592  0.90140216     0.06500
C437        C  0.05621877  0.16270751  0.90573047    -0.09650
C438        C  0.06599172  0.14161132  0.88892915     0.04000
C439        C  0.09668797  0.15751155  0.86828859    -0.08180
C440        C  0.11655497  0.19389635  0.86392268     0.06490
C441        C  0.10610548  0.21471546  0.88044280    -0.07600
H442        H  0.03280495  0.15076735  0.92190684     0.12080
H443        H  0.10553317  0.14189756  0.85584528     0.09610
H444        H  0.12131665  0.24285173  0.87705590     0.09460
C445        C  0.30418055  0.41848832  0.86031480     0.06500
C446        C  0.34201276  0.43677772  0.86251985    -0.09650
C447        C  0.35946723  0.42331715  0.88129292     0.04000
C448        C  0.33847231  0.39167849  0.89825102    -0.08180
C449        C  0.30071114  0.37333908  0.89644082     0.06490
C450        C  0.28340203  0.38663148  0.87731888    -0.07600
H451        H  0.35744760  0.46172047  0.85002695     0.12080
H452        H  0.35162907  0.38126779  0.91312277     0.09610
H453        H  0.25414227  0.37250366  0.87589244     0.09460
C454        C  0.42768416  0.31178579  0.89642351     0.06500
C455        C  0.44740611  0.34825019  0.89982508    -0.09650
C456        C  0.43636476  0.36831388  0.88296377     0.04000
C457        C  0.40465428  0.35126076  0.86287402    -0.08180
C458        C  0.38474602  0.31463152  0.85949573     0.06490
C459        C  0.39634369  0.29485858  0.87623208    -0.07600
H460        H  0.47157043  0.36110504  0.91565682     0.12080
H461        H  0.39492712  0.36614131  0.85041402     0.09610
H462        H  0.38096390  0.26654215  0.87377587     0.09460
O463        O  0.23625178  0.45238272  0.78688582    -0.71060
O464        O  0.21574500  0.50049966  0.71923245    -0.71090
O465        O  0.23591040  0.45269939  0.71871009    -0.71140
O466        O  0.21578739  0.50000569  0.78734806    -0.71190
O467        O  0.27306953  0.04421062  0.78958856    -0.71120
O468        O  0.29319492  0.99741181  0.72006040    -0.71100
O469        O  0.27308969  0.04527698  0.72135827    -0.71080
O470        O  0.29334938  0.99635493  0.78828076    -0.71140
Ni471      Ni  0.22386217  0.47486314  0.75302068     1.25410
Ni472      Ni  0.28526928  0.02236049  0.75487466     1.25360
C473        C  0.26871966  0.46625993  0.79804311     0.91120
C474        C  0.24066010  0.03153625  0.71018973     0.91050
C475        C  0.26828678  0.46662014  0.70824668     0.91080
C476        C  0.24059736  0.03012621  0.79996005     0.91250
O477        O  0.28955496  0.49561235  0.52871730    -0.71060
O478        O  0.21631176  0.45881165  0.96117313    -0.71090
O479        O  0.28971748  0.49898165  0.96094954    -0.71140
O480        O  0.21649799  0.45580330  0.52853437    -0.71190
O481        O  0.21483742  0.00455953  0.53056961    -0.71120
O482        O  0.28561808  0.04660568  0.96217665    -0.71100
O483        O  0.21224795  0.00631228  0.96258417    -0.71080
O484        O  0.28788135  0.04486356  0.52966505    -0.71140
Ni485      Ni  0.25255869  0.47522216  0.49443078     1.25410
Ni486      Ni  0.25021609  0.02712550  0.49614856     1.25360
C487        C  0.30147552  0.02712265  0.53928995     0.91120
C488        C  0.20253942  0.47645389  0.95162421     0.91050
C489        C  0.29888102  0.02938920  0.95012926     0.91080
C490        C  0.20358807  0.47308473  0.54109010     0.91250
O491        O  0.20550101  0.20438513  0.71966309    -0.71060
O492        O  0.28056363  0.23861880  0.78723913    -0.71090
O493        O  0.20759856  0.20854377  0.78784819    -0.71140
O494        O  0.27836065  0.23423871  0.71918571    -0.71190
O495        O  0.28551945  0.28712581  0.71656192    -0.71120
O496        O  0.21471531  0.26140371  0.78521030    -0.71100
O497        O  0.28762336  0.29145394  0.78453324    -0.71080
O498        O  0.21275975  0.25730828  0.71706089    -0.71140
Ni499      Ni  0.24270868  0.21952130  0.75359447     1.25410
Ni500      Ni  0.25039796  0.27620961  0.75074918     1.25360
C501        C  0.19678026  0.22525239  0.70748442     0.91120
C502        C  0.29667535  0.27079790  0.79654172     0.91050
C503        C  0.19938744  0.23061911  0.79753836     0.91080
C504        C  0.29379578  0.26506216  0.70699014     0.91250
C505        C  0.32628992  0.28444852  0.82025474    -0.09900
C506        C  0.35248767  0.29750973  0.83871120    -0.11460
C507        C  0.28744009  0.43298461  0.84024884    -0.09900
C508        C  0.27728657  0.44753441  0.82185544    -0.11460
C509        C  0.14720398  0.20941883  0.84188578    -0.09900
C510        C  0.17175167  0.22019343  0.82226843    -0.11460
C511        C  0.23178987  0.04834647  0.82410801    -0.09900
C512        C  0.21978690  0.06157689  0.84190560    -0.11460
C513        C  0.07705348  0.04508365  0.88638029    -0.13060
C514        C  0.10075291  0.04359008  0.86614648    -0.28240
H515        H  0.08616937  0.06296600  0.90778154     0.15960
H516        H  0.09038178  0.02544426  0.84480625     0.16530
C517        C  0.04061867  0.08033852  0.87024469    -0.13060
C518        C  0.04365911  0.10321312  0.89377499    -0.28240
H519        H  0.05515218  0.08933079  0.84675322     0.15960
H520        H  0.02816507  0.09335067  0.91675535     0.16530
C521        C  0.46014691  0.42934444  0.86484705    -0.13060
C522        C  0.45802940  0.40679501  0.88803850    -0.28240
H523        H  0.44471612  0.41981135  0.84143614     0.15960
H524        H  0.47369671  0.41704499  0.91131694     0.16530
C525        C  0.42258625  0.46656744  0.86384287    -0.13060
C526        C  0.39936303  0.44189086  0.88504580    -0.28240
H527        H  0.41301492  0.47483910  0.84274438     0.15960
H528        H  0.41024458  0.43467800  0.90604290     0.16530
C529        C  0.04056391  0.44786986  0.86075167    -0.13060
C530        C  0.03855887  0.46859420  0.88385788    -0.28240
H531        H  0.02497015  0.44184002  0.83743015     0.15960
H532        H  0.05389182  0.47497799  0.90732120     0.16530
C533        C  0.14650452  0.44780579  0.90978288    -0.09900
C534        C  0.17284852  0.46108404  0.92800598    -0.11460
C535        C  0.45684136  0.05859978  0.85654130    -0.13060
C536        C  0.45931107  0.03848362  0.87974423    -0.28240
H537        H  0.47269926  0.06475971  0.83375795     0.15960
H538        H  0.44430680  0.03230648  0.90299212     0.16530
C539        C  0.35224342  0.05881777  0.90676408    -0.09900
C540        C  0.32715136  0.04550078  0.92582593    -0.11460
C541        C  0.34762381  0.28818602  0.66453559    -0.09900
C542        C  0.32195357  0.27576287  0.68288134    -0.11460
C543        C  0.23216146  0.05033527  0.68650111    -0.09900
C544        C  0.22090895  0.06397951  0.66824808    -0.11460
C545        C  0.16797804  0.21229936  0.68295909    -0.09900
C546        C  0.14289005  0.20103941  0.66330086    -0.11460
C547        C  0.28703087  0.43390146  0.66567404    -0.09960
C548        C  0.27653469  0.44802654  0.68408980    -0.11460
C549        C  0.08076913  0.04401905  0.60867819    -0.13060
C550        C  0.10296178  0.04266539  0.63143392    -0.28240
H551        H  0.09118059  0.06328096  0.58884778     0.15960
H552        H  0.09114628  0.02293951  0.65094493     0.16530
C553        C  0.03873142  0.07329175  0.62384925    -0.13060
C554        C  0.04033210  0.09773051  0.60345991    -0.28240
H555        H  0.05350495  0.08071399  0.64766497     0.15960
H556        H  0.02491282  0.08951574  0.57991994     0.16530
C557        C  0.47017127  0.42460689  0.60472278    -0.13060
C558        C  0.44768263  0.40298101  0.62838800    -0.28240
H559        H  0.47782854  0.41472019  0.58351263     0.15960
H560        H  0.44110392  0.41422237  0.64935359     0.16530
C561        C  0.42513176  0.45410746  0.60591585    -0.13060
C562        C  0.40324970  0.45281587  0.63022227    -0.28240
H563        H  0.41430038  0.43687122  0.58401244     0.15960
H564        H  0.41528597  0.47030738  0.65192670     0.16530
C565        C  0.04598526  0.46791940  0.60378633    -0.13060
C566        C  0.04477417  0.44544999  0.62673100    -0.28240
H567        H  0.06451866  0.47654007  0.58289632     0.15960
H568        H  0.02577104  0.43770043  0.64729442     0.16530
C569        C  0.17581221  0.45687443  0.56572862    -0.09900
C570        C  0.15090808  0.44343845  0.58491043    -0.11460
C571        C  0.45870339  0.05100858  0.63225682    -0.13060
C572        C  0.45976097  0.03075610  0.60786500    -0.28240
H573        H  0.47544656  0.05687666  0.65476651     0.15960
H574        H  0.44346251  0.02476482  0.58508803     0.16530
C575        C  0.33006528  0.04195260  0.56394369    -0.09900
C576        C  0.35515535  0.05457935  0.58357413    -0.11460
C577        C  0.45305213  0.28232754  0.57020609    -0.09900
C578        C  0.43958159  0.29376444  0.58837109    -0.11460
C579        C  0.04760912  0.22882481  0.57271451    -0.09900
C580        C  0.05994564  0.21513245  0.58927505    -0.11460
C581        C  0.05128775  0.23154101  0.93646720    -0.09900
C582        C  0.06450556  0.21936446  0.91903502    -0.11460
C583        C  0.43969408  0.29238125  0.91491697    -0.09900
C584        C  0.45273009  0.28065270  0.93329351    -0.11460
C585        C  0.22647202  0.17360283  0.57340828    -0.09900
C586        C  0.21616686  0.14914836  0.59225230    -0.11460
C587        C  0.21177008  0.14606995  0.91690861    -0.09900
C588        C  0.22189624  0.17064961  0.93601617    -0.11460
C589        C  0.28829898  0.34673823  0.58920677    -0.09900
C590        C  0.27586516  0.32115756  0.57101518    -0.11460
C591        C  0.26945989  0.31685497  0.93412518    -0.09900
C592        C  0.28072538  0.34153983  0.91549109    -0.11460
C593        C  0.44258010  0.14887561  0.65967468    -0.09900
C594        C  0.45496611  0.17511529  0.67660460    -0.11460
C595        C  0.44922072  0.17805390  0.81295669    -0.09900
C596        C  0.43591005  0.15276422  0.83066938    -0.11460
C597        C  0.05890224  0.35169675  0.83512482    -0.09900
C598        C  0.04644887  0.32623634  0.81709894    -0.11460
C599        C  0.06462499  0.35202463  0.66178366    -0.09900
C600        C  0.05183125  0.32679536  0.67968769    -0.11460
O601        O  0.04567632  0.78389337  0.28076993    -0.71060
O602        O  0.00268680  0.71302611  0.21219816    -0.71090
O603        O  0.04816755  0.78370916  0.21276188    -0.71140
O604        O  0.99995348  0.71350420  0.27996735    -0.71190
O605        O  0.45393655  0.72058010  0.27943402    -0.71120
O606        O  0.50081128  0.79007908  0.21180795    -0.71100
O607        O  0.45586712  0.71931706  0.21158109    -0.71080
O608        O  0.49915890  0.79108406  0.27970938    -0.71140
Ni609      Ni  0.02583710  0.74830079  0.24650517     1.25410
Ni610      Ni  0.47574852  0.75551927  0.24551557     1.25360
C611        C  0.02902323  0.79873274  0.29028530     0.91120
C612        C  0.47267400  0.70448473  0.20233219     0.91050
C613        C  0.03221112  0.79842924  0.20067840     0.91080
C614        C  0.46999298  0.70599210  0.29142365     0.91250
O615        O  0.20935380  0.70426447  0.03841156    -0.71060
O616        O  0.22735082  0.77154800  0.47083072    -0.71090
O617        O  0.20529071  0.70255974  0.47166456    -0.71140
O618        O  0.23139273  0.77344074  0.03719371    -0.71190
O619        O  0.28882073  0.78771579  0.03605581    -0.71120
O620        O  0.26269294  0.71680349  0.46992976    -0.71100
O621        O  0.28471966  0.78568436  0.46910569    -0.71080
O622        O  0.26679889  0.71859410  0.03734302    -0.71140
Ni623      Ni  0.21606349  0.73770275  0.50548466     1.25410
Ni624      Ni  0.27752753  0.75285151  0.50358059     1.25360
C625        C  0.23472392  0.70014280  0.04886253     0.91120
C626        C  0.25923055  0.78976274  0.45891513     0.91050
C627        C  0.22975331  0.69791776  0.45992808     0.91080
C628        C  0.26438394  0.79269020  0.04712016     0.91250
O629        O  0.45402412  0.73939516  0.47077742    -0.71060
O630        O  0.50026482  0.71692327  0.03796531    -0.71090
O631        O  0.45447701  0.74057233  0.03712260    -0.71140
O632        O  0.50017653  0.71631973  0.47109779    -0.71190
O633        O  0.04827550  0.76942545  0.47113316    -0.71120
O634        O  0.00203904  0.79609667  0.03952941    -0.71100
O635        O  0.04754887  0.77198049  0.03995826    -0.71080
O636        O  0.00260411  0.79321959  0.46866663    -0.71140
Ni637      Ni  0.47560612  0.72614288  0.50495800     1.25410
Ni638      Ni  0.02661640  0.78387956  0.50390593     1.25360
C639        C  0.46999516  0.77079723  0.46005339     0.91120
C640        C  0.03115418  0.74031968  0.05013705     0.91050
C641        C  0.47045668  0.77211284  0.04832360     0.91080
C642        C  0.03233331  0.73765971  0.46069900     0.91250
C643        C  0.38630668  0.57011734  0.10778087     0.06500
C644        C  0.39883602  0.60206987  0.12448398    -0.09650
C645        C  0.43008718  0.61665288  0.14466702     0.04000
C646        C  0.44891324  0.59945267  0.14797843    -0.08180
C647        C  0.43685329  0.56769878  0.13089309     0.06490
C648        C  0.40496821  0.55281195  0.11119965    -0.07600
H649        H  0.38443213  0.61553572  0.12171549     0.12080
H650        H  0.47333265  0.61110877  0.16341122     0.09610
H651        H  0.39440982  0.52778797  0.09854587     0.09460
C652        C  0.07530929  0.88303715  0.14052375     0.06500
C653        C  0.10700743  0.89794466  0.12174630    -0.09650
C654        C  0.11850894  0.92893990  0.10416698     0.04000
C655        C  0.09840962  0.94495255  0.10532512    -0.08180
C656        C  0.06615668  0.92976419  0.12364768     0.06490
C657        C  0.05505266  0.89891497  0.14146831    -0.07600
H658        H  0.12258762  0.88554557  0.12082117     0.12080
H659        H  0.10837143  0.96931949  0.09214056     0.09610
H660        H  0.03042369  0.88707386  0.15597893     0.09460
C661        C  0.48112581  0.51463799  0.11169183     0.05650
C662        C  0.46350008  0.97799879  0.10508102     0.05650
C663        C  0.48437797  0.96239868  0.10386008     0.05650
C664        C  0.02257627  0.98382433  0.10633681     0.05650
C665        C  0.04007283  0.52037450  0.10880961     0.05650
C666        C  0.01934289  0.53573735  0.11262042     0.05650
C667        C  0.30418211  0.92295450  0.14338408     0.06500
C668        C  0.28562082  0.89113942  0.12527591    -0.09650
C669        C  0.30511454  0.87999514  0.10669692     0.04000
C670        C  0.34301569  0.90077602  0.10623404    -0.08180
C671        C  0.36167583  0.93283715  0.12411632     0.06490
C672        C  0.34193375  0.94347827  0.14274262    -0.07600
H673        H  0.25635944  0.87511978  0.12582038     0.12080
H674        H  0.35768280  0.89143100  0.09248306     0.09610
H675        H  0.35607694  0.96796956  0.15690339     0.09460
C676        C  0.07158065  0.69388411  0.10550631     0.06500
C677        C  0.10138333  0.70792030  0.12760094    -0.09650
C678        C  0.11178739  0.68601047  0.14163415     0.04000
C679        C  0.09233545  0.65017484  0.13360135    -0.08180
C680        C  0.06196271  0.63581233  0.11177686     0.06490
C681        C  0.05209313  0.65804657  0.09760505    -0.07600
H682        H  0.11647163  0.73568724  0.13367865     0.12080
H683        H  0.10143208  0.63389516  0.14399927     0.09610
H684        H  0.02902657  0.64739162  0.08046168     0.09460
C685        C  0.20027745  0.57452057  0.14762754     0.06500
C686        C  0.21835053  0.60587606  0.12947543    -0.09650
C687        C  0.19831530  0.61687509  0.11134831     0.04000
C688        C  0.16043348  0.59649897  0.11148174    -0.08180
C689        C  0.14216840  0.56471201  0.12913988     0.06490
C690        C  0.16246796  0.55422586  0.14733412    -0.07600
H691        H  0.24763898  0.62155754  0.12951169     0.12080
H692        H  0.14562179  0.60592381  0.09798676     0.09610
H693        H  0.14874271  0.52995516  0.16128213     0.09460
C694        C  0.42324421  0.81011670  0.10765048     0.06500
C695        C  0.44049144  0.84667418  0.10659422    -0.09650
C696        C  0.42603243  0.86382243  0.12388687     0.04000
C697        C  0.39454351  0.84386149  0.14262715    -0.08180
C698        C  0.37734832  0.80738870  0.14381800     0.06490
C699        C  0.39159854  0.79040775  0.12623412    -0.07600
H700        H  0.46538198  0.86144474  0.09277061     0.12080
H701        H  0.38334428  0.85677827  0.15641424     0.09610
H702        H  0.37831156  0.76214271  0.12716702     0.09460
C703        C  0.38302299  0.57318036  0.38520640     0.06500
C704        C  0.39458015  0.60505174  0.36922536    -0.09650
C705        C  0.42454001  0.61939313  0.34807552     0.04000
C706        C  0.44281879  0.60203055  0.34276547    -0.08180
C707        C  0.43205097  0.57068017  0.35916462     0.06490
C708        C  0.40170862  0.55601731  0.38021356    -0.07600
H709        H  0.38044503  0.61859804  0.37326021     0.12080
H710        H  0.46610776  0.61343129  0.32643875     0.09610
H711        H  0.39245796  0.53127725  0.39252616     0.09460
C712        C  0.06988986  0.88334362  0.35160379     0.06500
C713        C  0.10132681  0.89885823  0.37157782    -0.09650
C714        C  0.11286621  0.93062170  0.38831847     0.04000
C715        C  0.09281681  0.94665445  0.38520043    -0.08180
C716        C  0.06095217  0.93083019  0.36531939     0.06490
C717        C  0.04995218  0.89932895  0.34840337    -0.07600
H718        H  0.11684353  0.88646268  0.37385550     0.12080
H719        H  0.10252803  0.97161596  0.39769098     0.09610
H720        H  0.02569131  0.88713770  0.33270158     0.09460
C721        C  0.47941198  0.52039240  0.37394117     0.05650
C722        C  0.46029200  0.98348265  0.36877053     0.05650
C723        C  0.47945866  0.96621175  0.37084073     0.05650
C724        C  0.01673851  0.98473416  0.37783253     0.05650
C725        C  0.03543621  0.52275632  0.38063111     0.05650
C726        C  0.01637636  0.53984783  0.37708270     0.05650
C727        C  0.19710021  0.57376824  0.35827735     0.06500
C728        C  0.21410467  0.60422220  0.37850735    -0.09650
C729        C  0.19320028  0.61532494  0.39455101     0.04000
C730        C  0.15555924  0.59601915  0.39032164    -0.08180
C731        C  0.13831100  0.56516152  0.37056958     0.06490
C732        C  0.15941872  0.55449926  0.35441038    -0.07600
H733        H  0.24325636  0.61914756  0.38166610     0.12080
H734        H  0.14008282  0.60555015  0.40219992     0.09610
H735        H  0.14642407  0.53092428  0.33885191     0.09460
C736        C  0.07765623  0.69504255  0.40610949     0.06500
C737        C  0.05973965  0.65905832  0.41206569    -0.09650
C738        C  0.06985531  0.63838077  0.39503839     0.04000
C739        C  0.09909969  0.65414639  0.37282687    -0.08180
C740        C  0.11778811  0.69034776  0.36749350     0.06490
C741        C  0.10687160  0.71084173  0.38397411    -0.07600
H742        H  0.03703190  0.64689898  0.42907010     0.12080
H743        H  0.10729615  0.63826059  0.35978039     0.09610
H744        H  0.12080972  0.73875328  0.37945042     0.09460
C745        C  0.30240715  0.91721620  0.35942151     0.06500
C746        C  0.34023758  0.93494708  0.36116690    -0.09650
C747        C  0.35746731  0.92126355  0.37996510     0.04000
C748        C  0.33626037  0.88995485  0.39735809    -0.08180
C749        C  0.29851179  0.87216848  0.39598763     0.06490
C750        C  0.28141938  0.88569041  0.37688139    -0.07600
H751        H  0.35586223  0.95968552  0.34836634     0.12080
H752        H  0.34924783  0.87940051  0.41227286     0.09610
H753        H  0.25217113  0.87200182  0.37582218     0.09460
C754        C  0.42705955  0.81068186  0.39813980     0.06500
C755        C  0.44679013  0.84719033  0.40104270    -0.09650
C756        C  0.43589037  0.86702046  0.38351383     0.04000
C757        C  0.40430738  0.84968010  0.36326278    -0.08180
C758        C  0.38440103  0.81301342  0.36037819     0.06490
C759        C  0.39586007  0.79347606  0.37777909    -0.07600
H760        H  0.47084688  0.86025951  0.41700554     0.12080
H761        H  0.39463963  0.86436557  0.35031406     0.09610
H762        H  0.38048730  0.76513207  0.37569631     0.09460
O763        O  0.23469019  0.95170497  0.28644147    -0.71060
O764        O  0.21404806  0.00026936  0.21941119    -0.71090
O765        O  0.23425278  0.95250828  0.21819777    -0.71140
O766        O  0.21425080  0.99937927  0.28754047    -0.71190
O767        O  0.27144047  0.54432003  0.28941932    -0.71120
O768        O  0.29239969  0.49720369  0.22085797    -0.71100
O769        O  0.27172254  0.54463795  0.22119324    -0.71080
O770        O  0.29239268  0.49691595  0.28910384    -0.71140
Ni771      Ni  0.22224434  0.97442047  0.25288308     1.25410
Ni772      Ni  0.28407677  0.52232665  0.25520476     1.25360
C773        C  0.26717391  0.96551219  0.29753104     0.91120
C774        C  0.23930825  0.53056262  0.20988476     0.91050
C775        C  0.26660289  0.96658923  0.20757172     0.91080
C776        C  0.23888982  0.53013165  0.29961938     0.91250
O777        O  0.28957396  0.99695825  0.02793976    -0.71060
O778        O  0.21509559  0.95763801  0.45997587    -0.71090
O779        O  0.28841626  0.99793098  0.45899621    -0.71140
O780        O  0.21649698  0.95658632  0.02821489    -0.71190
O781        O  0.21532242  0.50569878  0.03142523    -0.71120
O782        O  0.28661201  0.54659947  0.46366091    -0.71100
O783        O  0.21320700  0.50684718  0.46365813    -0.71080
O784        O  0.28840833  0.54595465  0.03126653    -0.71140
Ni785      Ni  0.25236155  0.97575753  0.99392110     1.25410
Ni786      Ni  0.25116682  0.52828429  0.99734144     1.25360
C787        C  0.30183893  0.52817141  0.04120925     0.91120
C788        C  0.20120769  0.97524755  0.45068811     0.91050
C789        C  0.29961546  0.52929050  0.45125727     0.91080
C790        C  0.20332420  0.97378589  0.04040007     0.91250
O791        O  0.20486509  0.70290885  0.22065729    -0.71060
O792        O  0.28045556  0.73687370  0.28767514    -0.71090
O793        O  0.20743082  0.70618436  0.28890347    -0.71140
O794        O  0.27774877  0.73337266  0.21953985    -0.71190
O795        O  0.28432592  0.78605695  0.21793533    -0.71120
O796        O  0.21397998  0.75884714  0.28727430    -0.71100
O797        O  0.28693567  0.78950646  0.28597305    -0.71080
O798        O  0.21155775  0.75563685  0.21907277    -0.71140
Ni799      Ni  0.24235034  0.71791457  0.25427491     1.25410
Ni800      Ni  0.24942428  0.77438997  0.25251517     1.25360
C801        C  0.19583502  0.72374522  0.20902598     0.91120
C802        C  0.29634075  0.76891104  0.29740761     0.91050
C803        C  0.19901569  0.72792653  0.29921728     0.91080
C804        C  0.29275410  0.76430907  0.20767564     0.91250
C805        C  0.32604619  0.78248352  0.32101028    -0.09900
C806        C  0.35223095  0.79562579  0.33948574    -0.11460
C807        C  0.28586305  0.93197516  0.33944677    -0.09900
C808        C  0.27576451  0.94665584  0.32116514    -0.11460
C809        C  0.14754108  0.70597255  0.34443715    -0.09900
C810        C  0.17164076  0.71700856  0.32430037    -0.11460
C811        C  0.22971121  0.54849049  0.32325689    -0.09900
C812        C  0.21751198  0.56181277  0.34067638    -0.11460
C813        C  0.07507166  0.54414602  0.38702215    -0.13060
C814        C  0.09851817  0.54376523  0.36556284    -0.28240
H815        H  0.08446619  0.56114574  0.40910195     0.15960
H816        H  0.08792529  0.52623356  0.34376874     0.16530
C817        C  0.03653795  0.57828419  0.37329630    -0.13060
C818        C  0.04882011  0.60017084  0.39987440    -0.28240
H819        H  0.04173310  0.58852823  0.34784843     0.15960
H820        H  0.04163312  0.58988611  0.42523697     0.16530
C821        C  0.45943441  0.92780664  0.36468200    -0.13060
C822        C  0.45745354  0.90556585  0.38816903    -0.28240
H823        H  0.44415997  0.91796141  0.34122177     0.15960
H824        H  0.47294213  0.91611634  0.41149969     0.16530
C825        C  0.42066326  0.96386370  0.36219639    -0.13060
C826        C  0.39735848  0.93947165  0.38356689    -0.28240
H827        H  0.41114847  0.97190638  0.34086664     0.15960
H828        H  0.40815805  0.93250437  0.40482483     0.16530
C829        C  0.03915342  0.94689926  0.36051878    -0.13060
C830        C  0.03695132  0.96715926  0.38401733    -0.28240
H831        H  0.02360469  0.94116559  0.33720149     0.15960
H832        H  0.05219190  0.97324935  0.40750867     0.16530
C833        C  0.14517964  0.94670280  0.40889055    -0.09900
C834        C  0.17146562  0.95991421  0.42716218    -0.11460
C835        C  0.45333757  0.55420192  0.35405034    -0.13060
C836        C  0.45893991  0.53769385  0.37898892    -0.28240
H837        H  0.46640536  0.55733435  0.32997761     0.15960
H838        H  0.44718618  0.53529611  0.40360166     0.16530
C839        C  0.35252262  0.55834319  0.40735913    -0.09900
C840        C  0.32777871  0.54538974  0.42682896    -0.11460
C841        C  0.34566533  0.78804361  0.16409617    -0.09900
C842        C  0.32049329  0.77545122  0.18304021    -0.11460
C843        C  0.23071969  0.54898577  0.18581487    -0.09900
C844        C  0.21959615  0.56254429  0.16728950    -0.11460
C845        C  0.16709351  0.71099532  0.18446679    -0.09900
C846        C  0.14226073  0.70005863  0.16455577    -0.11460
C847        C  0.28547740  0.93495997  0.16369574    -0.09960
C848        C  0.27484561  0.94845533  0.18281262    -0.11460
C849        C  0.08003675  0.54359214  0.10713973    -0.13060
C850        C  0.10211070  0.54181514  0.12972544    -0.28240
H851        H  0.09058185  0.56309580  0.08753113     0.15960
H852        H  0.09015881  0.52190975  0.14906278     0.16530
C853        C  0.03840374  0.57322472  0.12273156    -0.13060
C854        C  0.04060873  0.59803530  0.10250680    -0.28240
H855        H  0.05272631  0.58021747  0.14677804     0.15960
H856        H  0.02559275  0.59023782  0.07874278     0.16530
C857        C  0.46661303  0.92373463  0.10074917    -0.13060
C858        C  0.44351793  0.90244682  0.12427085    -0.28240
H859        H  0.47453668  0.91344762  0.08009486     0.15960
H860        H  0.43669059  0.91401258  0.14474403     0.16530
C861        C  0.42344011  0.95541557  0.10156168    -0.13060
C862        C  0.40168331  0.95542846  0.12532984    -0.28240
H863        H  0.41237509  0.93743494  0.08021561     0.15960
H864        H  0.41389592  0.97352610  0.14658114     0.16530
C865        C  0.04494942  0.96814357  0.10265074    -0.13060
C866        C  0.04372267  0.94552109  0.12541508    -0.28240
H867        H  0.06352293  0.97689204  0.08178280     0.15960
H868        H  0.02472381  0.93764168  0.14599535     0.16530
C869        C  0.17545425  0.95763021  0.06495145    -0.09900
C870        C  0.15033413  0.94411477  0.08388658    -0.11460
C871        C  0.45826417  0.55096377  0.13390551    -0.13060
C872        C  0.45913368  0.53086040  0.10923431    -0.28240
H873        H  0.47514937  0.55666244  0.15628277     0.15960
H874        H  0.44270883  0.52503628  0.08657046     0.16530
C875        C  0.33014235  0.54296610  0.06615090    -0.09900
C876        C  0.35507831  0.55550297  0.08595274    -0.11460
C877        C  0.45232756  0.78194572  0.07164432    -0.09900
C878        C  0.43819935  0.79321443  0.08913320    -0.11460
C879        C  0.04868606  0.72972222  0.07349495    -0.09900
C880        C  0.06086084  0.71580852  0.08992992    -0.11460
C881        C  0.05084998  0.72726656  0.43855426    -0.09900
C882        C  0.06487284  0.71492733  0.42251597    -0.11460
C883        C  0.43901636  0.79153531  0.41715458    -0.09900
C884        C  0.45218399  0.78003353  0.43565277    -0.11460
C885        C  0.22640604  0.67330374  0.07320889    -0.09900
C886        C  0.21586596  0.64856581  0.09173249    -0.11460
C887        C  0.20959049  0.64609678  0.41604825    -0.09900
C888        C  0.21985035  0.67045615  0.43545407    -0.11460
C889        C  0.28679213  0.84737048  0.08781541    -0.09900
C890        C  0.27479148  0.82137119  0.07028640    -0.11460
C891        C  0.26717705  0.81617687  0.43428790    -0.09900
C892        C  0.27835679  0.84068660  0.41544489    -0.11460
C893        C  0.44310049  0.64923548  0.16226837    -0.09900
C894        C  0.45576469  0.67554302  0.17914384    -0.11460
C895        C  0.45147668  0.67800628  0.31467389    -0.09900
C896        C  0.43735465  0.65202421  0.33146392    -0.11460
C897        C  0.05813198  0.85159147  0.33309910    -0.09900
C898        C  0.04562141  0.82636713  0.31478156    -0.11460
C899        C  0.06327971  0.85164263  0.15937170    -0.09900
C900        C  0.05043467  0.82633871  0.17716553    -0.11460
O901        O  0.04583382  0.78491539  0.78089615    -0.71060
O902        O  0.00327250  0.71343296  0.71280613    -0.71090
O903        O  0.04855664  0.78411395  0.71294851    -0.71140
O904        O  0.00043515  0.71451743  0.78057253    -0.71190
O905        O  0.45351403  0.72064385  0.77802850    -0.71120
O906        O  0.50068170  0.78920505  0.70956554    -0.71100
O907        O  0.45509852  0.71849872  0.71023778    -0.71080
O908        O  0.49915879  0.79104326  0.77746346    -0.71140
Ni909      Ni  0.02623677  0.74901376  0.74690250     1.25410
Ni910      Ni  0.47544116  0.75513093  0.74368050     1.25360
C911        C  0.02901096  0.79969599  0.79008235     0.91120
C912        C  0.47150402  0.70317090  0.70135806     0.91050
C913        C  0.03257366  0.79867092  0.70056831     0.91080
C914        C  0.46942246  0.70601008  0.79028449     0.91250
O915        O  0.20874734  0.70479351  0.53996980    -0.71060
O916        O  0.22828243  0.77073190  0.96897086    -0.71090
O917        O  0.20668332  0.70187581  0.97013831    -0.71140
O918        O  0.23117219  0.77409313  0.53905557    -0.71190
O919        O  0.28846987  0.78804663  0.53722217    -0.71120
O920        O  0.26422556  0.71647567  0.96908353    -0.71100
O921        O  0.28580103  0.78525268  0.96791787    -0.71080
O922        O  0.26606806  0.71882734  0.53819249    -0.71140
Ni923      Ni  0.21685057  0.73702193  0.00375313     1.25410
Ni924      Ni  0.27846233  0.75253636  0.00258841     1.25360
C925        C  0.23412801  0.70049553  0.55002601     0.91120
C926        C  0.26027788  0.78912053  0.95736726     0.91050
C927        C  0.23140014  0.69738433  0.95882987     0.91080
C928        C  0.26428095  0.79318489  0.54867674     0.91250
O929        O  0.45529627  0.74049870  0.96905669    -0.71060
O930        O  0.50048821  0.71667680  0.53900423    -0.71090
O931        O  0.45447957  0.74009528  0.53889150    -0.71140
O932        O  0.50133022  0.71733237  0.97004122    -0.71190
O933        O  0.04780548  0.77226260  0.97185478    -0.71120
O934        O  0.00170130  0.79448009  0.53670856    -0.71100
O935        O  0.04715954  0.77037264  0.53907230    -0.71080
O936        O  0.00223255  0.79613348  0.97144209    -0.71140
Ni937      Ni  0.47616073  0.72685106  0.00353216     1.25410
Ni938      Ni  0.02660994  0.78612769  0.00575058     1.25360
C939        C  0.47148427  0.77200852  0.95863548     0.91120
C940        C  0.03067168  0.73889375  0.54975857     0.91050
C941        C  0.47056416  0.77172905  0.54982947     0.91080
C942        C  0.03153664  0.74073297  0.96065577     0.91250
C943        C  0.38393643  0.56683957  0.60922984     0.06500
C944        C  0.39624497  0.59892330  0.62561222    -0.09650
C945        C  0.42740441  0.61380867  0.64595680     0.04000
C946        C  0.44628343  0.59674353  0.64985410    -0.08180
C947        C  0.43453197  0.56493652  0.63304812     0.06490
C948        C  0.40274662  0.54971542  0.61316196    -0.07600
H949        H  0.38186557  0.61235400  0.62231311     0.12080
H950        H  0.47069637  0.60869828  0.66531945     0.09610
H951        H  0.39253448  0.52469359  0.60061157     0.09460
C952        C  0.07650420  0.88337929  0.64063802     0.06500
C953        C  0.10825211  0.89817798  0.62195566    -0.09650
C954        C  0.11999139  0.92926730  0.60446864     0.04000
C955        C  0.10007694  0.94547513  0.60562826    -0.08180
C956        C  0.06778830  0.93037690  0.62387945     0.06490
C957        C  0.05646265  0.89945826  0.64162155    -0.07600
H958        H  0.12365501  0.88559838  0.62099353     0.12080
H959        H  0.11015523  0.96987607  0.59246673     0.09610
H960        H  0.03177987  0.88767683  0.65605024     0.09460
C961        C  0.48122571  0.51421343  0.61378944     0.05650
C962        C  0.46438910  0.97767582  0.60682842     0.05650
C963        C  0.48529188  0.96209682  0.60556994     0.05650
C964        C  0.02394224  0.98402510  0.60614817     0.05650
C965        C  0.04071258  0.52019975  0.61130097     0.05650
C966        C  0.01989609  0.53552499  0.61472594     0.05650
C967        C  0.30522731  0.92386455  0.64465636     0.06500
C968        C  0.28650642  0.89201470  0.62662895    -0.09650
C969        C  0.30584817  0.88052515  0.60831587     0.04000
C970        C  0.34376426  0.90099376  0.60803145    -0.08180
C971        C  0.36259820  0.93310554  0.62581651     0.06490
C972        C  0.34300023  0.94409516  0.64419166    -0.07600
H973        H  0.25722850  0.87623293  0.62702640     0.12080
H974        H  0.35829430  0.89138117  0.59446628     0.09610
H975        H  0.35726663  0.96862915  0.65827584     0.09460
C976        C  0.07123715  0.69334319  0.60614724     0.06500
C977        C  0.10109833  0.70774014  0.62817883    -0.09650
C978        C  0.11178258  0.68614025  0.64242016     0.04000
C979        C  0.09255055  0.65024328  0.63466304    -0.08180
C980        C  0.06212319  0.63552181  0.61288449     0.06490
C981        C  0.05197492  0.65745458  0.59849033    -0.07600
H982        H  0.11601834  0.73555163  0.63404830     0.12080
H983        H  0.10184466  0.63419152  0.64524076     0.09610
H984        H  0.02886379  0.64652457  0.58137757     0.09460
C985        C  0.20156085  0.57475449  0.64795717     0.06500
C986        C  0.21923767  0.60618572  0.62986860    -0.09650
C987        C  0.19881479  0.61718295  0.61239891     0.04000
C988        C  0.16095813  0.59673353  0.61313367    -0.08180
C989        C  0.14307707  0.56486671  0.63068070     0.06490
C990        C  0.16375217  0.55439131  0.64823075    -0.07600
H991        H  0.24851246  0.62191584  0.62943824     0.12080
H992        H  0.14585394  0.60615355  0.60016579     0.09610
H993        H  0.15031757  0.53005970  0.66209225     0.09460
C994        C  0.42383405  0.80978906  0.60975359     0.06500
C995        C  0.44121753  0.84635424  0.60877730    -0.09650
C996        C  0.42680663  0.86357703  0.62600101     0.04000
C997        C  0.39522633  0.84366729  0.64465429    -0.08180
C998        C  0.37787516  0.80716367  0.64578419     0.06490
C999        C  0.39208579  0.79012117  0.62822545    -0.07600
H1000       H  0.46616433  0.86107525  0.59502533     0.12080
H1001       H  0.38405387  0.85664289  0.65838027     0.09610
H1002       H  0.37867042  0.76184092  0.62906306     0.09460
C1003       C  0.38408687  0.57399887  0.88525392     0.06500
C1004       C  0.39511017  0.60564227  0.86905705    -0.09650
C1005       C  0.42502813  0.62022900  0.84786306     0.04000
C1006       C  0.44382621  0.60334328  0.84273544    -0.08180
C1007       C  0.43358354  0.57220682  0.85933345     0.06490
C1008       C  0.40326894  0.55729916  0.88044021    -0.07600
H1009       H  0.38055884  0.61880530  0.87292518     0.12080
H1010       H  0.46705421  0.61491587  0.82632882     0.09610
H1011       H  0.39436901  0.53269272  0.89287780     0.09460
C1012       C  0.06971214  0.88456146  0.85121468     0.06500
C1013       C  0.10108293  0.89978942  0.87126278    -0.09650
C1014       C  0.11285632  0.93155642  0.88808455     0.04000
C1015       C  0.09309989  0.94788890  0.88498950    -0.08180
C1016       C  0.06129230  0.93236461  0.86504156     0.06490
C1017       C  0.05005508  0.90084223  0.84803459    -0.07600
H1018       H  0.11638161  0.88716977  0.87352788     0.12080
H1019       H  0.10301249  0.97285925  0.89753815     0.09610
H1020       H  0.02584804  0.88887969  0.83226905     0.09460
C1021       C  0.48142141  0.52226254  0.87372921     0.05650
C1022       C  0.46108121  0.98488170  0.86999937     0.05650
C1023       C  0.47980082  0.96712982  0.87120337     0.05650
C1024       C  0.01812897  0.98727255  0.87738127     0.05650
C1025       C  0.03747256  0.52319852  0.87889083     0.05650
C1026       C  0.01875819  0.54070301  0.87577137     0.05650
C1027       C  0.19939691  0.57279929  0.85807925     0.06500
C1028       C  0.21637572  0.60331782  0.87818466    -0.09650
C1029       C  0.19544199  0.61438715  0.89417338     0.04000
C1030       C  0.15779998  0.59501294  0.88999247    -0.08180
C1031       C  0.14051811  0.56405572  0.87035046     0.06490
C1032       C  0.16169141  0.55337419  0.85432448    -0.07600
H1033       H  0.24554195  0.61836953  0.88121921     0.12080
H1034       H  0.14243749  0.60468139  0.90180582     0.09610
H1035       H  0.14875407  0.52976906  0.83881090     0.09460
C1036       C  0.07316821  0.69774323  0.90157249     0.06500
C1037       C  0.05299361  0.66133312  0.90519611    -0.09650
C1038       C  0.06316834  0.64033379  0.88875034     0.04000
C1039       C  0.09459404  0.65649650  0.86904934    -0.08180
C1040       C  0.11473197  0.69292664  0.86517655     0.06490
C1041       C  0.10399722  0.71363495  0.88144201    -0.07600
H1042       H  0.02909387  0.64926604  0.92074289     0.12080
H1043       H  0.10392351  0.64112821  0.85696733     0.09610
H1044       H  0.11954588  0.74183792  0.87855999     0.09460
C1045       C  0.30302699  0.91781549  0.85987700     0.06500
C1046       C  0.34085389  0.93607692  0.86221935    -0.09650
C1047       C  0.35821041  0.92240520  0.88081925     0.04000
C1048       C  0.33713412  0.89058213  0.89744132    -0.08180
C1049       C  0.29938786  0.87226952  0.89548349     0.06490
C1050       C  0.28216081  0.88577014  0.87655632    -0.07600
H1051       H  0.35636319  0.96116420  0.84998993     0.12080
H1052       H  0.35021870  0.88001046  0.91218282     0.09610
H1053       H  0.25290553  0.87166459  0.87503942     0.09460
C1054       C  0.42799072  0.81186010  0.89747101     0.06500
C1055       C  0.44744394  0.84832779  0.90063209    -0.09650
C1056       C  0.43590476  0.86801175  0.88384198     0.04000
C1057       C  0.40398230  0.85060583  0.86409422    -0.08180
C1058       C  0.38432785  0.81396866  0.86098204     0.06490
C1059       C  0.39641088  0.79454501  0.87762331    -0.07600
H1060       H  0.47179572  0.86148492  0.91620271     0.12080
H1061       H  0.39391496  0.86523361  0.85169720     0.09610
H1062       H  0.38123281  0.76621596  0.87536128     0.09460
O1063       O  0.23544026  0.95265757  0.78715909    -0.71060
O1064       O  0.21516645  0.00158986  0.72029585    -0.71090
O1065       O  0.23525383  0.95375676  0.71893965    -0.71140
O1066       O  0.21517863  0.00044788  0.78841352    -0.71190
O1067       O  0.27362709  0.54389260  0.78830729    -0.71120
O1068       O  0.29384202  0.49638958  0.71955960    -0.71100
O1069       O  0.27363921  0.54424517  0.72005366    -0.71080
O1070       O  0.29411814  0.49617857  0.78777388    -0.71140
Ni1071     Ni  0.22318974  0.97557277  0.75367896     1.25410
Ni1072     Ni  0.28590678  0.52173622  0.75395889     1.25360
C1073       C  0.26788276  0.96635212  0.79831024     0.91120
C1074       C  0.24118382  0.53037906  0.70891059     0.91050
C1075       C  0.26764015  0.96782961  0.70840909     0.91080
C1076       C  0.24114487  0.52980954  0.79867174     0.91250
O1077       O  0.29051838  0.99665686  0.52710236    -0.71060
O1078       O  0.21476950  0.95804339  0.96017959    -0.71090
O1079       O  0.28814408  0.99834266  0.95983930    -0.71140
O1080       O  0.21747080  0.95635101  0.52799979    -0.71190
O1081       O  0.21433054  0.50424045  0.53167706    -0.71120
O1082       O  0.28732851  0.54732371  0.96310119    -0.71100
O1083       O  0.21390793  0.50714785  0.96339682    -0.71080
O1084       O  0.28740106  0.54405793  0.53182310    -0.71140
Ni1085     Ni  0.25299382  0.97541974  0.49339112     1.25410
Ni1086     Ni  0.25032539  0.52719437  0.49778041     1.25360
C1087       C  0.30051593  0.52588964  0.54141613     0.91120
C1088       C  0.20096009  0.97567398  0.95071403     0.91050
C1089       C  0.30053280  0.53001538  0.95114536     0.91080
C1090       C  0.20444981  0.97361235  0.54037524     0.91250
O1091       O  0.20454537  0.70376264  0.72189061    -0.71060
O1092       O  0.27969090  0.73773137  0.78927860    -0.71090
O1093       O  0.20672395  0.70770788  0.79009533    -0.71140
O1094       O  0.27738893  0.73367270  0.72117953    -0.71190
O1095       O  0.28448513  0.78654519  0.71885553    -0.71120
O1096       O  0.21388579  0.76059724  0.78770580    -0.71100
O1097       O  0.28677092  0.79058993  0.78684974    -0.71080
O1098       O  0.21176094  0.75668218  0.71955399    -0.71140
Ni1099     Ni  0.24179219  0.71878994  0.75572047     1.25410
Ni1100     Ni  0.24947126  0.77548818  0.75316877     1.25360
C1101       C  0.19582360  0.72466886  0.70983975     0.91120
C1102       C  0.29583361  0.76987508  0.79867992     0.91050
C1103       C  0.19853174  0.72976913  0.79991675     0.91080
C1104       C  0.29272772  0.76453067  0.70904571     0.91250
C1105       C  0.32552364  0.78342653  0.82226751    -0.09900
C1106       C  0.35185433  0.79652863  0.84053702    -0.11460
C1107       C  0.28638579  0.93254926  0.84003075    -0.09900
C1108       C  0.27633297  0.94732968  0.82184738    -0.11460
C1109       C  0.14596396  0.70856975  0.84384789    -0.09900
C1110       C  0.17079288  0.71928771  0.82455791    -0.11460
C1111       C  0.23219985  0.54808890  0.82259017    -0.09900
C1112       C  0.21991817  0.56112607  0.84027426    -0.11460
C1113       C  0.07712896  0.54436070  0.88545381    -0.13060
C1114       C  0.10068395  0.54263787  0.86518106    -0.28240
H1115       H  0.08640045  0.56254081  0.90661594     0.15960
H1116       H  0.09015269  0.52418000  0.84409126     0.16530
C1117       C  0.03986057  0.57907910  0.87073903    -0.13060
C1118       C  0.04068995  0.60181872  0.89323958    -0.28240
H1119       H  0.05628130  0.58824894  0.84833570     0.15960
H1120       H  0.02353820  0.59174425  0.91522100     0.16530
C1121       C  0.45921276  0.92872012  0.86515778    -0.13060
C1122       C  0.45731112  0.90649502  0.88860195    -0.28240
H1123       H  0.44372365  0.91890552  0.84179969     0.15960
H1124       H  0.47303222  0.91702996  0.91181848     0.16530
C1125       C  0.42141727  0.96575601  0.86375307    -0.13060
C1126       C  0.39807911  0.94094769  0.88477849    -0.28240
H1127       H  0.41194743  0.97416284  0.84268019     0.15960
H1128       H  0.40883369  0.93361134  0.90578369     0.16530
C1129       C  0.03985000  0.94880992  0.86021581    -0.13060
C1130       C  0.03795395  0.96931309  0.88365553    -0.28240
H1131       H  0.02436233  0.94321404  0.83687884     0.15960
H1132       H  0.05317098  0.97529870  0.90714952     0.16530
C1133       C  0.14512784  0.94734927  0.90869980    -0.09900
C1134       C  0.17135967  0.96039064  0.92703402    -0.11460
C1135       C  0.45522855  0.55609271  0.85417098    -0.13060
C1136       C  0.46093555  0.53952883  0.87898633    -0.28240
H1137       H  0.46832466  0.55939825  0.83008336     0.15960
H1138       H  0.44910034  0.53689537  0.90359696     0.16530
C1139       C  0.35353964  0.55890736  0.90735044    -0.09900
C1140       C  0.32872704  0.54593873  0.92673992    -0.11460
C1141       C  0.34601096  0.78784109  0.66588380    -0.09900
C1142       C  0.32065833  0.77533065  0.68463788    -0.11460
C1143       C  0.23257958  0.54903719  0.68510558    -0.09900
C1144       C  0.22126537  0.56273575  0.66697834    -0.11460
C1145       C  0.16715404  0.71181340  0.68521051    -0.09900
C1146       C  0.14230457  0.70058346  0.66529656    -0.11460
C1147       C  0.28662436  0.93615772  0.66471866    -0.09960
C1148       C  0.27595037  0.94972196  0.68369228    -0.11460
C1149       C  0.08066275  0.54351280  0.60941215    -0.13060
C1150       C  0.10303787  0.54186375  0.63172908    -0.28240
H1151       H  0.09098013  0.56297056  0.58975989     0.15960
H1152       H  0.09138817  0.52198890  0.65111200     0.16530
C1153       C  0.03887552  0.57311280  0.62446000    -0.13060
C1154       C  0.04096817  0.59766721  0.60392642    -0.28240
H1155       H  0.05322009  0.58040188  0.64850159     0.15960
H1156       H  0.02595308  0.58958978  0.58016401     0.16530
C1157       C  0.46750768  0.92340475  0.60270797    -0.13060
C1158       C  0.44440856  0.90222482  0.62630140    -0.28240
H1159       H  0.47533577  0.91299180  0.58208977     0.15960
H1160       H  0.43762671  0.91388486  0.64671965     0.16530
C1161       C  0.42431555  0.95508391  0.60345620    -0.13060
C1162       C  0.40262447  0.95544601  0.62709094    -0.28240
H1163       H  0.41318073  0.93693458  0.58224248     0.15960
H1164       H  0.41490793  0.97372254  0.64820328     0.16530
C1165       C  0.04654971  0.96860218  0.60261816    -0.13060
C1166       C  0.04542438  0.94618411  0.62555114    -0.28240
H1167       H  0.06510963  0.97728493  0.58173805     0.15960
H1168       H  0.02641353  0.93837426  0.64611652     0.16530
C1169       C  0.17680263  0.95756876  0.56512770    -0.09900
C1170       C  0.15177707  0.94424189  0.58416656    -0.11460
C1171       C  0.45652109  0.54883141  0.63617565    -0.13060
C1172       C  0.45828109  0.52940265  0.61135455    -0.28240
H1173       H  0.47332765  0.55471314  0.65864453     0.15960
H1174       H  0.44194754  0.52341168  0.58859722     0.16530
C1175       C  0.32850158  0.54000227  0.56669266    -0.09900
C1176       C  0.35307391  0.55218376  0.58690058    -0.11460
C1177       C  0.45275718  0.78165498  0.57345332    -0.09900
C1178       C  0.43870993  0.79286463  0.59113997    -0.11460
C1179       C  0.04806947  0.72866169  0.57363629    -0.09900
C1180       C  0.06028862  0.71497503  0.59034559    -0.11460
C1181       C  0.04917697  0.73075995  0.93696060    -0.09900
C1182       C  0.06187730  0.71817011  0.91936574    -0.11460
C1183       C  0.44053799  0.79287418  0.91587411    -0.09900
C1184       C  0.45396686  0.78147371  0.93415290    -0.11460
C1185       C  0.22602163  0.67361346  0.57428709    -0.09900
C1186       C  0.21589171  0.64889810  0.59278063    -0.11460
C1187       C  0.21181161  0.64532733  0.91542168    -0.09900
C1188       C  0.22189693  0.66982850  0.93459605    -0.11460
C1189       C  0.28733530  0.84789489  0.58946366    -0.09900
C1190       C  0.27509121  0.82188347  0.57192190    -0.11460
C1191       C  0.26829088  0.81558049  0.93279211    -0.09900
C1192       C  0.27936416  0.84030951  0.91425981    -0.11460
C1193       C  0.44068404  0.64685350  0.66271794    -0.09900
C1194       C  0.45397736  0.67367089  0.67886195    -0.11460
C1195       C  0.45092443  0.67835141  0.81385843    -0.09900
C1196       C  0.43718946  0.65257911  0.83093768    -0.11460
C1197       C  0.05779166  0.85280231  0.83264380    -0.09900
C1198       C  0.04539604  0.82752125  0.81440582    -0.11460
C1199       C  0.06412441  0.85184406  0.65930429    -0.09900
C1200       C  0.05093548  0.82649034  0.67702246    -0.11460
O1201       O  0.54639559  0.28457925  0.28081847    -0.71060
O1202       O  0.50354234  0.21362308  0.21224628    -0.71090
O1203       O  0.54914727  0.28429518  0.21283458    -0.71140
O1204       O  0.50060212  0.21418515  0.28001659    -0.71190
O1205       O  0.95435179  0.22177670  0.27858750    -0.71120
O1206       O  0.00039608  0.28990138  0.20955243    -0.71100
O1207       O  0.95512116  0.21920727  0.21064347    -0.71080
O1208       O  0.99975478  0.29218593  0.27747061    -0.71140
Ni1209     Ni  0.52663299  0.24893255  0.24656994     1.25410
Ni1210     Ni  0.97570343  0.25601946  0.24394188     1.25360
C1211       C  0.52974614  0.29947253  0.29019636     0.91120
C1212       C  0.97165040  0.20408873  0.20144621     0.91050
C1213       C  0.53329805  0.29906724  0.20063844     0.91080
C1214       C  0.97060512  0.20745748  0.29079628     0.91250
O1215       O  0.70900789  0.20450573  0.03944013    -0.71060
O1216       O  0.72739786  0.27164061  0.47075058    -0.71090
O1217       O  0.70535942  0.20266904  0.47151862    -0.71140
O1218       O  0.73148574  0.27381295  0.03821395    -0.71190
O1219       O  0.78879948  0.28774221  0.03712318    -0.71120
O1220       O  0.76276431  0.21692351  0.46973961    -0.71100
O1221       O  0.78477131  0.28579249  0.46897484    -0.71080
O1222       O  0.76634142  0.21849954  0.03840495    -0.71140
Ni1223     Ni  0.71614530  0.23779137  0.50536871     1.25410
Ni1224     Ni  0.77760895  0.25293784  0.50341604     1.25360
C1225       C  0.73425194  0.20019593  0.04991532     0.91120
C1226       C  0.75926506  0.28986326  0.45882092     0.91050
C1227       C  0.72982302  0.19804527  0.45974868     0.91080
C1228       C  0.76448434  0.29291613  0.04815778     0.91250
O1229       O  0.95288086  0.23886048  0.46938097    -0.71060
O1230       O  0.00065415  0.21717698  0.03790485    -0.71090
O1231       O  0.95456644  0.24049670  0.03685228    -0.71140
O1232       O  0.99871526  0.21542625  0.47018755    -0.71190
O1233       O  0.54827646  0.26955391  0.47086908    -0.71120
O1234       O  0.50004021  0.29497496  0.03775959    -0.71100
O1235       O  0.54589224  0.27129130  0.03934827    -0.71080
O1236       O  0.50288684  0.29368407  0.46844668    -0.71140
Ni1237     Ni  0.97403883  0.22542156  0.50381079     1.25410
Ni1238     Ni  0.52681802  0.28419018  0.50367062     1.25360
C1239       C  0.96908391  0.27026940  0.45865379     0.91120
C1240       C  0.52955287  0.23964727  0.04958312     0.91050
C1241       C  0.97040807  0.27206822  0.04795003     0.91080
C1242       C  0.53218036  0.23778043  0.46043697     0.91250
C1243       C  0.88521369  0.06945242  0.10708854     0.06500
C1244       C  0.89744808  0.10128684  0.12392196    -0.09650
C1245       C  0.92878899  0.11610124  0.14400110     0.04000
C1246       C  0.94798729  0.09925761  0.14708891    -0.08180
C1247       C  0.93623137  0.06763936  0.12988034     0.06490
C1248       C  0.90427339  0.05251312  0.11026511    -0.07600
H1249       H  0.88274918  0.11448000  0.12133587     0.12080
H1250       H  0.97245735  0.11108596  0.16246279     0.09610
H1251       H  0.89394418  0.02756744  0.09752598     0.09460
C1252       C  0.57657971  0.38367544  0.14058726     0.06500
C1253       C  0.60810416  0.39850330  0.12157314    -0.09650
C1254       C  0.61942231  0.42940195  0.10389078     0.04000
C1255       C  0.59930611  0.44540090  0.10518875    -0.08180
C1256       C  0.56722347  0.43027719  0.12377835     0.06490
C1257       C  0.55632570  0.39953936  0.14170263    -0.07600
H1258       H  0.62366960  0.38609411  0.12051268     0.12080
H1259       H  0.60909549  0.46967645  0.09188590     0.09610
H1260       H  0.53181891  0.38773754  0.15639245     0.09460
C1261       C  0.98087957  0.01492771  0.11077197     0.05650
C1262       C  0.96391096  0.47815516  0.10500090     0.05650
C1263       C  0.98474984  0.46252240  0.10350789     0.05650
C1264       C  0.52307689  0.48384059  0.10674050     0.05650
C1265       C  0.53963987  0.02025734  0.10935419     0.05650
C1266       C  0.51886827  0.03562593  0.11281651     0.05650
C1267       C  0.80487608  0.42372032  0.14395573     0.06500
C1268       C  0.78617405  0.39179542  0.12601858    -0.09650
C1269       C  0.80552635  0.38045724  0.10747414     0.04000
C1270       C  0.84342246  0.40115472  0.10687376    -0.08180
C1271       C  0.86222549  0.43331975  0.12456638     0.06490
C1272       C  0.84263120  0.44415763  0.14316644    -0.07600
H1273       H  0.75691407  0.37584157  0.12666895     0.12080
H1274       H  0.85798219  0.39166701  0.09315894     0.09610
H1275       H  0.85689208  0.46873262  0.15718526     0.09460
C1276       C  0.57012977  0.19355953  0.10522568     0.06500
C1277       C  0.60012609  0.20782002  0.12709437    -0.09650
C1278       C  0.61084374  0.18611345  0.14101931     0.04000
C1279       C  0.59152306  0.15025724  0.13310607    -0.08180
C1280       C  0.56095240  0.13565336  0.11152010     0.06490
C1281       C  0.55075475  0.15768720  0.09744744    -0.07600
H1282       H  0.61513199  0.23560925  0.13306955     0.12080
H1283       H  0.60087611  0.13414960  0.14341355     0.09610
H1284       H  0.52754052  0.14685525  0.08047108     0.09460
C1285       C  0.69977079  0.07434718  0.14847587     0.06500
C1286       C  0.71784453  0.10577219  0.13040679    -0.09650
C1287       C  0.69780625  0.11684695  0.11237905     0.04000
C1288       C  0.65993039  0.09647771  0.11253095    -0.08180
C1289       C  0.64166368  0.06462340  0.13007239     0.06490
C1290       C  0.66195435  0.05406500  0.14818093    -0.07600
H1291       H  0.74713230  0.12144131  0.13042216     0.12080
H1292       H  0.64511205  0.10595317  0.09912833     0.09610
H1293       H  0.64821617  0.02973819  0.16203937     0.09460
C1294       C  0.92308262  0.31010062  0.10711493     0.06500
C1295       C  0.94052438  0.34668283  0.10618140    -0.09650
C1296       C  0.92613786  0.36391522  0.12343731     0.04000
C1297       C  0.89451308  0.34401616  0.14201702    -0.08180
C1298       C  0.87710295  0.30751743  0.14308251     0.06490
C1299       C  0.89129440  0.29045139  0.12553700    -0.07600
H1300       H  0.96550911  0.36141414  0.09248406     0.12080
H1301       H  0.88336745  0.35700372  0.15576761     0.09610
H1302       H  0.87785208  0.26216861  0.12637453     0.09460
C1303       C  0.88547175  0.07629726  0.38659654     0.06500
C1304       C  0.89701102  0.10818194  0.37069171    -0.09650
C1305       C  0.92761405  0.12309738  0.35036986     0.04000
C1306       C  0.94676725  0.10643991  0.34607068    -0.08180
C1307       C  0.93581912  0.07482663  0.36212251     0.06490
C1308       C  0.90464464  0.05953858  0.38218649    -0.07600
H1309       H  0.88221320  0.12118087  0.37396628     0.12080
H1310       H  0.97049345  0.11829785  0.33029074     0.09610
H1311       H  0.89480979  0.03451583  0.39406043     0.09460
C1312       C  0.57019938  0.38396657  0.35173113     0.06500
C1313       C  0.60156759  0.39948249  0.37181786    -0.09650
C1314       C  0.61288746  0.43110108  0.38876654     0.04000
C1315       C  0.59269510  0.44698838  0.38573288    -0.08180
C1316       C  0.56089669  0.43116715  0.36575969     0.06490
C1317       C  0.55011197  0.39981439  0.34863836    -0.07600
H1318       H  0.61719373  0.38719526  0.37403306     0.12080
H1319       H  0.60225364  0.47184976  0.39836997     0.09610
H1320       H  0.52590573  0.38763339  0.33286298     0.09460
C1321       C  0.97921772  0.01992757  0.37356769     0.05650
C1322       C  0.96009748  0.48363490  0.36884538     0.05650
C1323       C  0.97917413  0.46626799  0.37069007     0.05650
C1324       C  0.51662536  0.48498262  0.37849345     0.05650
C1325       C  0.53566974  0.02286253  0.38023952     0.05650
C1326       C  0.51653527  0.03985210  0.37643864     0.05650
C1327       C  0.69732247  0.07378457  0.35837621     0.06500
C1328       C  0.71429787  0.10428971  0.37853090    -0.09650
C1329       C  0.69337546  0.11549781  0.39435083     0.04000
C1330       C  0.65575419  0.09625148  0.38996907    -0.08180
C1331       C  0.63853982  0.06533427  0.37030556     0.06490
C1332       C  0.65966205  0.05457166  0.35436067    -0.07600
H1333       H  0.74343524  0.11916149  0.38181629     0.12080
H1334       H  0.64026633  0.10585363  0.40168849     0.09610
H1335       H  0.64669175  0.03094515  0.33887497     0.09460
C1336       C  0.57721745  0.19511207  0.40543052     0.06500
C1337       C  0.55932910  0.15911443  0.41128227    -0.09650
C1338       C  0.56938278  0.13847668  0.39408179     0.04000
C1339       C  0.59856890  0.15431960  0.37179269    -0.08180
C1340       C  0.61722702  0.19054091  0.36654272     0.06490
C1341       C  0.60635161  0.21097869  0.38320697    -0.07600
H1342       H  0.53669433  0.14691564  0.42836788     0.12080
H1343       H  0.60677594  0.13849454  0.35864653     0.09610
H1344       H  0.62026920  0.23890414  0.37876853     0.09460
C1345       C  0.80223114  0.41748356  0.35968142     0.06500
C1346       C  0.84006048  0.43522133  0.36138592    -0.09650
C1347       C  0.85730873  0.42148216  0.38005817     0.04000
C1348       C  0.83613030  0.39011738  0.39736654    -0.08180
C1349       C  0.79838570  0.37233022  0.39603541     0.06490
C1350       C  0.78126402  0.38590101  0.37705517    -0.07600
H1351       H  0.85566961  0.46000052  0.34864866     0.12080
H1352       H  0.84913722  0.37951959  0.41218685     0.09610
H1353       H  0.75201457  0.37220727  0.37602607     0.09460
C1354       C  0.92661597  0.31051821  0.39667287     0.06500
C1355       C  0.94635196  0.34700351  0.39980735    -0.09650
C1356       C  0.93545975  0.36695840  0.38251068     0.04000
C1357       C  0.90388590  0.34976945  0.36223771    -0.08180
C1358       C  0.88396469  0.31311630  0.35912934     0.06490
C1359       C  0.89541630  0.29345482  0.37630632    -0.07600
H1360       H  0.97039238  0.35995740  0.41579788     0.12080
H1361       H  0.89423205  0.36455684  0.34946656     0.09610
H1362       H  0.88002021  0.26512134  0.37406962     0.09460
O1363       O  0.73478715  0.45225078  0.28669699    -0.71060
O1364       O  0.71457855  0.50110859  0.21966967    -0.71090
O1365       O  0.73482269  0.45337165  0.21846516    -0.71140
O1366       O  0.71433066  0.49990263  0.28778971    -0.71190
O1367       O  0.77141931  0.04391766  0.28978355    -0.71120
O1368       O  0.79204846  0.99674525  0.22104992    -0.71100
O1369       O  0.77140359  0.04421489  0.22156504    -0.71080
O1370       O  0.79229245  0.99644864  0.28929786    -0.71140
Ni1371     Ni  0.72256362  0.47511449  0.25312513     1.25410
Ni1372     Ni  0.78387877  0.02188446  0.25547858     1.25360
C1373       C  0.76719961  0.46601599  0.29796229     0.91120
C1374       C  0.73894222  0.03017030  0.21038121     0.91050
C1375       C  0.76724909  0.46750051  0.20802642     0.91080
C1376       C  0.73891204  0.02977546  0.30007875     0.91250
O1377       O  0.79001968  0.49656568  0.02736418    -0.71060
O1378       O  0.71478084  0.45803624  0.46084068    -0.71090
O1379       O  0.78810313  0.49812879  0.45985762    -0.71140
O1380       O  0.71695556  0.45634844  0.02756921    -0.71190
O1381       O  0.71369749  0.00446679  0.03169537    -0.71120
O1382       O  0.78744561  0.04813950  0.46344193    -0.71100
O1383       O  0.71404074  0.00785664  0.46350545    -0.71080
O1384       O  0.78675467  0.04478515  0.03122545    -0.71140
Ni1385     Ni  0.75287868  0.47535535  0.99330605     1.25410
Ni1386     Ni  0.74934459  0.02708507  0.99747366     1.25360
C1387       C  0.80028125  0.02703884  0.04101506     0.91120
C1388       C  0.70099443  0.47571554  0.45148525     0.91050
C1389       C  0.80075038  0.03106888  0.45111582     0.91080
C1390       C  0.70385512  0.47365928  0.03964736     0.91250
O1391       O  0.70423699  0.20327772  0.21961552    -0.71060
O1392       O  0.77983754  0.23715103  0.28660350    -0.71090
O1393       O  0.70681327  0.20653457  0.28785287    -0.71140
O1394       O  0.77711732  0.23364999  0.21847625    -0.71190
O1395       O  0.78378599  0.28637132  0.21687647    -0.71120
O1396       O  0.71342698  0.25922345  0.28624181    -0.71100
O1397       O  0.78639252  0.28981583  0.28491375    -0.71080
O1398       O  0.71101076  0.25604049  0.21803762    -0.71140
Ni1399     Ni  0.74172283  0.21823326  0.25321670     1.25410
Ni1400     Ni  0.74888061  0.27474289  0.25146835     1.25360
C1401       C  0.69523622  0.22414242  0.20800484     0.91120
C1402       C  0.79577346  0.26919505  0.29632523     0.91050
C1403       C  0.69842310  0.22829201  0.29817667     0.91080
C1404       C  0.79218611  0.26459653  0.20662453     0.91250
C1405       C  0.82552474  0.28275062  0.31987049    -0.09900
C1406       C  0.85175772  0.29585260  0.33828259    -0.11460
C1407       C  0.78567625  0.43228922  0.33981426    -0.09900
C1408       C  0.77564119  0.44704860  0.32157936    -0.11460
C1409       C  0.64694211  0.20625818  0.34342754    -0.09900
C1410       C  0.67103550  0.21736579  0.32326704    -0.11460
C1411       C  0.72985199  0.04823287  0.32369531    -0.09900
C1412       C  0.71772998  0.06169621  0.34100569    -0.11460
C1413       C  0.57529376  0.04437815  0.38660582    -0.13060
C1414       C  0.59876270  0.04391746  0.36524472    -0.28240
H1415       H  0.58464702  0.06150238  0.40859674     0.15960
H1416       H  0.58819558  0.02624992  0.34354642     0.16530
C1417       C  0.53666977  0.07826904  0.37246322    -0.13060
C1418       C  0.54839858  0.10025661  0.39896016    -0.28240
H1419       H  0.54237507  0.08839540  0.34697574     0.15960
H1420       H  0.54073842  0.09001949  0.42429456     0.16530
C1421       C  0.95908766  0.42791589  0.36419726    -0.13060
C1422       C  0.95701206  0.40545894  0.38747268    -0.28240
H1423       H  0.94385461  0.41828914  0.34069320     0.15960
H1424       H  0.97244092  0.41579784  0.41086184     0.16530
C1425       C  0.92048012  0.46413765  0.36229387    -0.13060
C1426       C  0.89719138  0.43967019  0.38361066    -0.28240
H1427       H  0.91097297  0.47229211  0.34104711     0.15960
H1428       H  0.90800666  0.43260167  0.40477865     0.16530
C1429       C  0.53899305  0.44714121  0.36105913    -0.13060
C1430       C  0.53669903  0.46726969  0.38465246    -0.28240
H1431       H  0.52354294  0.44153831  0.33769675     0.15960
H1432       H  0.55184605  0.47322494  0.40818586     0.16530
C1433       C  0.64510922  0.44719094  0.40948496    -0.09900
C1434       C  0.67130888  0.46042662  0.42787775    -0.11460
C1435       C  0.95738285  0.05852215  0.35684662    -0.13060
C1436       C  0.95842256  0.03690715  0.37921257    -0.28240
H1437       H  0.97402522  0.06547651  0.33452669     0.15960
H1438       H  0.94253855  0.02980452  0.40196033     0.16530
C1439       C  0.85427767  0.06085624  0.40791428    -0.09900
C1440       C  0.82912451  0.04747031  0.42691840    -0.11460
C1441       C  0.84526290  0.28824164  0.16320130    -0.09900
C1442       C  0.81999381  0.27571789  0.18204426    -0.11460
C1443       C  0.73025430  0.04864069  0.18643002    -0.09900
C1444       C  0.71909056  0.06226566  0.16802210    -0.11460
C1445       C  0.66643968  0.21140009  0.18351668    -0.09900
C1446       C  0.64149781  0.20037745  0.16372835    -0.11460
C1447       C  0.78630570  0.43591198  0.16424164    -0.09960
C1448       C  0.77566323  0.44944695  0.18330908    -0.11460
C1449       C  0.57961644  0.04347574  0.10785630    -0.13060
C1450       C  0.60160327  0.04172959  0.13057865    -0.28240
H1451       H  0.59025570  0.06294158  0.08821184     0.15960
H1452       H  0.58959234  0.02184796  0.14993175     0.16530
C1453       C  0.53790175  0.07319335  0.12267390    -0.13060
C1454       C  0.53972849  0.09782513  0.10241864    -0.28240
H1455       H  0.55247643  0.08039887  0.14659221     0.15960
H1456       H  0.52448092  0.08983902  0.07878255     0.16530
C1457       C  0.96691899  0.42384069  0.10039755    -0.13060
C1458       C  0.94382336  0.40256252  0.12393013    -0.28240
H1459       H  0.97473775  0.41351038  0.07969544     0.15960
H1460       H  0.93709066  0.41414547  0.14446025     0.16530
C1461       C  0.92382200  0.45562585  0.10172339    -0.13060
C1462       C  0.90224324  0.45581656  0.12558974    -0.28240
H1463       H  0.91258277  0.43756241  0.08044994     0.15960
H1464       H  0.91461031  0.47399241  0.14676379     0.16530
C1465       C  0.54559776  0.46834722  0.10287987    -0.13060
C1466       C  0.54468708  0.44591159  0.12567600    -0.28240
H1467       H  0.56402096  0.47709184  0.08189163     0.15960
H1468       H  0.52582157  0.43804809  0.14637136     0.16530
C1469       C  0.67603947  0.45770596  0.06426385    -0.09900
C1470       C  0.65104236  0.44442350  0.08334352    -0.11460
C1471       C  0.95795464  0.05122721  0.13281334    -0.13060
C1472       C  0.95899335  0.03124008  0.10813150    -0.28240
H1473       H  0.97479050  0.05693713  0.15522958     0.15960
H1474       H  0.94260032  0.02539013  0.08544001     0.16530
C1475       C  0.82875707  0.04189725  0.06578404    -0.09900
C1476       C  0.85384017  0.05457593  0.08542467    -0.11460
C1477       C  0.95217266  0.28186136  0.07119793    -0.09900
C1478       C  0.93800290  0.29312904  0.08864037    -0.11460
C1479       C  0.54699590  0.22919366  0.07319757    -0.09900
C1480       C  0.55918854  0.21532931  0.08968427    -0.11460
C1481       C  0.55054492  0.22727618  0.43821697    -0.09900
C1482       C  0.56449105  0.21494365  0.42204733    -0.11460
C1483       C  0.93849878  0.29124342  0.41556394    -0.09900
C1484       C  0.95154120  0.27964525  0.43409338    -0.11460
C1485       C  0.72580678  0.17331797  0.07427489    -0.09900
C1486       C  0.71531819  0.14857760  0.09279887    -0.11460
C1487       C  0.70971333  0.14627296  0.41583300    -0.09900
C1488       C  0.71992904  0.17061319  0.43524959    -0.11460
C1489       C  0.78708457  0.34773176  0.08874150    -0.09900
C1490       C  0.77502922  0.32166933  0.07128644    -0.11460
C1491       C  0.76716469  0.31627922  0.43422503    -0.09900
C1492       C  0.77827438  0.34080448  0.41542090    -0.11460
C1493       C  0.94159430  0.14859568  0.16168632    -0.09900
C1494       C  0.95436801  0.17492701  0.17853441    -0.11460
C1495       C  0.95277693  0.18035553  0.31504305    -0.09900
C1496       C  0.93958383  0.15511238  0.33284243    -0.11460
C1497       C  0.55863688  0.35232979  0.33305872    -0.09900
C1498       C  0.54626852  0.32714220  0.31468820    -0.11460
C1499       C  0.56462669  0.35229628  0.15940992    -0.09900
C1500       C  0.55168513  0.32697401  0.17717008    -0.11460
O1501       O  0.54506670  0.28422403  0.78073065    -0.71060
O1502       O  0.50259456  0.21305904  0.71240781    -0.71090
O1503       O  0.54803953  0.28372737  0.71283024    -0.71140
O1504       O  0.49945455  0.21388097  0.78015919    -0.71190
O1505       O  0.95382143  0.21921162  0.77880636    -0.71120
O1506       O  0.00183415  0.28975466  0.71222620    -0.71100
O1507       O  0.95670945  0.21900719  0.71100802    -0.71080
O1508       O  0.99915202  0.28974002  0.78011511    -0.71140
Ni1509     Ni  0.52548986  0.24847784  0.74662522     1.25410
Ni1510     Ni  0.97619928  0.25469805  0.74541704     1.25360
C1511       C  0.52834071  0.29909666  0.78990635     0.91120
C1512       C  0.97352922  0.20418990  0.70177146     0.91050
C1513       C  0.53220771  0.29845480  0.70050070     0.91080
C1514       C  0.96960892  0.20431993  0.79071248     0.91250
O1515       O  0.70884175  0.20487177  0.53981398    -0.71060
O1516       O  0.72847480  0.27116609  0.96997652    -0.71090
O1517       O  0.70635785  0.20216060  0.97113246    -0.71140
O1518       O  0.73128755  0.27416853  0.53896391    -0.71190
O1519       O  0.78857899  0.28810658  0.53708530    -0.71120
O1520       O  0.76377034  0.21636636  0.97012254    -0.71100
O1521       O  0.78586153  0.28528300  0.96897840    -0.71080
O1522       O  0.76615542  0.21888422  0.53799716    -0.71140
Ni1523     Ni  0.71675694  0.23736693  0.00476615     1.25410
Ni1524     Ni  0.77823560  0.25248307  0.00364967     1.25360
C1525       C  0.73421674  0.20055709  0.54983723     0.91120
C1526       C  0.76050346  0.28937775  0.95839112     0.91050
C1527       C  0.73093532  0.19746286  0.95982119     0.91080
C1528       C  0.76440492  0.29324900  0.54856753     0.91250
O1529       O  0.95539568  0.24017387  0.96877699    -0.71060
O1530       O  0.99849737  0.21575100  0.53814395    -0.71090
O1531       O  0.95283123  0.23956358  0.53749749    -0.71140
O1532       O  0.00172917  0.21734005  0.97001701    -0.71190
O1533       O  0.54713306  0.27149044  0.97134062    -0.71120
O1534       O  0.50211242  0.29499256  0.53651424    -0.71100
O1535       O  0.54723874  0.27051638  0.53882805    -0.71080
O1536       O  0.50109123  0.29477492  0.96970091    -0.71140
Ni1537     Ni  0.97640671  0.22681466  0.00337900     1.25410
Ni1538     Ni  0.52521791  0.28514560  0.00459240     1.25360
C1539       C  0.97144896  0.27164025  0.95824861     0.91120
C1540       C  0.53060000  0.23904123  0.54954702     0.91050
C1541       C  0.96901292  0.27120300  0.54844276     0.91080
C1542       C  0.53130960  0.23993888  0.96031780     0.91250
C1543       C  0.88662673  0.06973811  0.60735739     0.06500
C1544       C  0.89931298  0.10181136  0.62390282    -0.09650
C1545       C  0.93071444  0.11649811  0.64389857     0.04000
C1546       C  0.94950600  0.09927142  0.64720019    -0.08180
C1547       C  0.93730142  0.06741557  0.63027626     0.06490
C1548       C  0.90529703  0.05243341  0.61075028    -0.07600
H1549       H  0.88491714  0.11528658  0.62115715     0.12080
H1550       H  0.97402462  0.11099214  0.66249663     0.09610
H1551       H  0.89466974  0.02734305  0.59820676     0.09460
C1552       C  0.57715610  0.38433333  0.64219286     0.06500
C1553       C  0.60868448  0.39899188  0.62320289    -0.09650
C1554       C  0.62078240  0.43048160  0.60634113     0.04000
C1555       C  0.60145903  0.44722732  0.60841711    -0.08180
C1556       C  0.56935685  0.43224181  0.62691551     0.06490
C1557       C  0.55768619  0.40094982  0.64409128    -0.07600
H1558       H  0.62360655  0.38596720  0.62147442     0.12080
H1559       H  0.61176016  0.47188132  0.59566225     0.09610
H1560       H  0.53310018  0.38922469  0.65866139     0.09460
C1561       C  0.98176264  0.01457980  0.61094021     0.05650
C1562       C  0.96456113  0.47785821  0.60718422     0.05650
C1563       C  0.98546916  0.46227897  0.60608493     0.05650
C1564       C  0.52493072  0.48529969  0.60939983     0.05650
C1565       C  0.54054380  0.02005234  0.61040846     0.05650
C1566       C  0.51974974  0.03537326  0.61405238     0.05650
C1567       C  0.80523932  0.42381417  0.64461493     0.06500
C1568       C  0.78658393  0.39198971  0.62654904    -0.09650
C1569       C  0.80598695  0.38058364  0.60821892     0.04000
C1570       C  0.84390521  0.40111089  0.60795752    -0.08180
C1571       C  0.86267419  0.43319504  0.62579703     0.06490
C1572       C  0.84300925  0.44410436  0.64417613    -0.07600
H1573       H  0.75730760  0.37615624  0.62693838     0.12080
H1574       H  0.85848592  0.39155924  0.59438402     0.09610
H1575       H  0.85722302  0.46861165  0.65830669     0.09460
C1576       C  0.57082350  0.19321219  0.60606063     0.06500
C1577       C  0.60061712  0.20755323  0.62818071    -0.09650
C1578       C  0.61129895  0.18592785  0.64237612     0.04000
C1579       C  0.59214023  0.15006631  0.63447336    -0.08180
C1580       C  0.56176734  0.13538488  0.61262726     0.06490
C1581       C  0.55161020  0.15734280  0.59829676    -0.07600
H1582       H  0.61550151  0.23534504  0.63413669     0.12080
H1583       H  0.60146409  0.13401877  0.64499574     0.09610
H1584       H  0.52855195  0.14645330  0.58112308     0.09460
C1585       C  0.70116538  0.07487547  0.64800846     0.06500
C1586       C  0.71894849  0.10628434  0.62990558    -0.09650
C1587       C  0.69862401  0.11718371  0.61211668     0.04000
C1588       C  0.66075801  0.09665561  0.61254265    -0.08180
C1589       C  0.64279039  0.06481988  0.63013504     0.06490
C1590       C  0.66336481  0.05443955  0.64799699    -0.07600
H1591       H  0.74822799  0.12207586  0.62971555     0.12080
H1592       H  0.64571625  0.10599708  0.59932419     0.09610
H1593       H  0.64985873  0.03013082  0.66189436     0.09460
C1594       C  0.92283859  0.30967011  0.60864707     0.06500
C1595       C  0.94058601  0.34628251  0.60806254    -0.09650
C1596       C  0.92650488  0.36360326  0.62566313     0.04000
C1597       C  0.89488692  0.34373909  0.64426748    -0.08180
C1598       C  0.87718446  0.30720095  0.64500329     0.06490
C1599       C  0.89106303  0.29006087  0.62709137    -0.07600
H1600       H  0.96554121  0.36094436  0.59431577     0.12080
H1601       H  0.88395424  0.35677834  0.65826631     0.09610
H1602       H  0.87737622  0.26174737  0.62764452     0.09460
C1603       C  0.88071831  0.07108356  0.88376117     0.06500
C1604       C  0.89286049  0.10304989  0.86770309    -0.09650
C1605       C  0.92195730  0.11624938  0.84555757     0.04000
C1606       C  0.93850859  0.09742590  0.83906056    -0.08180
C1607       C  0.92711339  0.06602496  0.85560264     0.06490
C1608       C  0.89810281  0.05278539  0.87801675    -0.07600
H1609       H  0.87991122  0.11759546  0.87251887     0.12080
H1610       H  0.96110737  0.10780988  0.82196134     0.09610
H1611       H  0.88906647  0.02830188  0.89080318     0.09460
C1612       C  0.56984252  0.38410064  0.85089018     0.06500
C1613       C  0.60136518  0.39926608  0.87072461    -0.09650
C1614       C  0.61345416  0.43116075  0.88742693     0.04000
C1615       C  0.59386941  0.44767048  0.88442716    -0.08180
C1616       C  0.56193478  0.43220656  0.86468550     0.06490
C1617       C  0.55037874  0.40057389  0.84778440    -0.07600
H1618       H  0.61651491  0.38649133  0.87293359     0.12080
H1619       H  0.60397572  0.47270836  0.89691298     0.09610
H1620       H  0.52604452  0.38865230  0.83219535     0.09460
C1621       C  0.98136815  0.02312572  0.87193311     0.05650
C1622       C  0.96179206  0.48463593  0.86963696     0.05650
C1623       C  0.98055735  0.46693409  0.87088229     0.05650
C1624       C  0.51867904  0.48686008  0.87782198     0.05650
C1625       C  0.53672476  0.02330121  0.87951701     0.05650
C1626       C  0.51803882  0.04080274  0.87647023     0.05650
C1627       C  0.69852324  0.07301043  0.85858972     0.06500
C1628       C  0.71553998  0.10346794  0.87880568    -0.09650
C1629       C  0.69465086  0.11460806  0.89479862     0.04000
C1630       C  0.65701245  0.09534586  0.89049783    -0.08180
C1631       C  0.63972141  0.06445833  0.87074961     0.06490
C1632       C  0.66084309  0.05373881  0.85471260    -0.07600
H1633       H  0.74469390  0.11839848  0.88194644     0.12080
H1634       H  0.64163632  0.10500608  0.90231164     0.09610
H1635       H  0.64787100  0.03017621  0.83913628     0.09460
C1636       C  0.57497277  0.19743722  0.90354010     0.06500
C1637       C  0.55520297  0.16115766  0.90796474    -0.09650
C1638       C  0.56512218  0.14004397  0.89144880     0.04000
C1639       C  0.59608092  0.15588428  0.87115706    -0.08180
C1640       C  0.61602551  0.19224495  0.86672477     0.06490
C1641       C  0.60539836  0.21310387  0.88287769    -0.07600
H1642       H  0.53154435  0.14922637  0.92382955     0.12080
H1643       H  0.60495297  0.14018244  0.85892803     0.09610
H1644       H  0.62059846  0.24121974  0.87935351     0.09460
C1645       C  0.80369023  0.41757484  0.86002136     0.06500
C1646       C  0.84152329  0.43571956  0.86213313    -0.09650
C1647       C  0.85891281  0.42212386  0.88080745     0.04000
C1648       C  0.83784223  0.39047433  0.89773098    -0.08180
C1649       C  0.80008077  0.37228247  0.89601056     0.06490
C1650       C  0.78284286  0.38572116  0.87700610    -0.07600
H1651       H  0.85700842  0.46067863  0.84968032     0.12080
H1652       H  0.85094012  0.37996187  0.91253955     0.09610
H1653       H  0.75358493  0.37172098  0.87567613     0.09460
C1654       C  0.92807053  0.31140456  0.89687960     0.06500
C1655       C  0.94765413  0.34786990  0.90009613    -0.09650
C1656       C  0.93631083  0.36769961  0.88328483     0.04000
C1657       C  0.90444013  0.35043088  0.86343548    -0.08180
C1658       C  0.88463951  0.31378298  0.86026973     0.06490
C1659       C  0.89654279  0.29422811  0.87695059    -0.07600
H1660       H  0.97195792  0.36091424  0.91573722     0.12080
H1661       H  0.89452110  0.36517346  0.85101683     0.09610
H1662       H  0.88125920  0.26589971  0.87466151     0.09460
O1663       O  0.73584859  0.45232868  0.78750352    -0.71060
O1664       O  0.71529387  0.50135979  0.72095536    -0.71090
O1665       O  0.73535783  0.45349824  0.71928002    -0.71140
O1666       O  0.71559047  0.50012517  0.78906355    -0.71190
O1667       O  0.77260524  0.04387049  0.78900708    -0.71120
O1668       O  0.79326718  0.99689288  0.72008405    -0.71100
O1669       O  0.77286103  0.04453821  0.72077518    -0.71080
O1670       O  0.79324893  0.99629283  0.78831991    -0.71140
Ni1671     Ni  0.72345165  0.47528318  0.75418248     1.25410
Ni1672     Ni  0.78508543  0.02194900  0.75459968     1.25360
C1673       C  0.76833609  0.46601639  0.79853350     0.91120
C1674       C  0.74045238  0.03062879  0.70950199     0.91050
C1675       C  0.76769806  0.46757976  0.70862312     0.91080
C1676       C  0.74008347  0.02970707  0.79927114     0.91250
O1677       O  0.79022286  0.49694968  0.52795356    -0.71060
O1678       O  0.71536020  0.45760659  0.95951111    -0.71090
O1679       O  0.78872930  0.49781975  0.95924416    -0.71140
O1680       O  0.71719613  0.45685677  0.52887791    -0.71190
O1681       O  0.71525445  0.00539108  0.53149858    -0.71120
O1682       O  0.78531253  0.04616950  0.96307825    -0.71100
O1683       O  0.71195725  0.00593177  0.96366679    -0.71080
O1684       O  0.78835756  0.04576696  0.53154979    -0.71140
Ni1685     Ni  0.75267922  0.47576408  0.49425550     1.25410
Ni1686     Ni  0.75118971  0.02853085  0.49757626     1.25360
C1687       C  0.80185026  0.02791254  0.54108178     0.91120
C1688       C  0.70161924  0.47525477  0.94991549     0.91050
C1689       C  0.79846054  0.02887308  0.95097459     0.91080
C1690       C  0.70432922  0.47424463  0.54126441     0.91250
O1691       O  0.70425186  0.20341040  0.72165598    -0.71060
O1692       O  0.77987929  0.23752364  0.78862511    -0.71090
O1693       O  0.70687480  0.20712358  0.78989942    -0.71140
O1694       O  0.77711047  0.23361820  0.72051628    -0.71190
O1695       O  0.78392014  0.28638595  0.71853750    -0.71120
O1696       O  0.71369550  0.25988542  0.78787642    -0.71100
O1697       O  0.78661847  0.29025239  0.78654797    -0.71080
O1698       O  0.71117391  0.25622111  0.71968427    -0.71140
Ni1699     Ni  0.74174137  0.21849343  0.75527029     1.25410
Ni1700     Ni  0.74908072  0.27506449  0.75310160     1.25360
C1701       C  0.69533555  0.22425941  0.70982971     0.91120
C1702       C  0.79592954  0.26963739  0.79813219     0.91050
C1703       C  0.69860816  0.22903913  0.80001588     0.91080
C1704       C  0.79223948  0.26449758  0.70848035     0.91250
C1705       C  0.82577479  0.28327958  0.82157678    -0.09900
C1706       C  0.85216681  0.29643379  0.83978738    -0.11460
C1707       C  0.78701119  0.43226335  0.84015399    -0.09900
C1708       C  0.77688615  0.44700156  0.82199243    -0.11460
C1709       C  0.64671528  0.20765021  0.84473046    -0.09900
C1710       C  0.67116434  0.21839401  0.82499854    -0.11460
C1711       C  0.73105972  0.04794483  0.82318842    -0.09900
C1712       C  0.71893279  0.06115853  0.84084487    -0.11460
C1713       C  0.57636179  0.04442265  0.88611919    -0.13060
C1714       C  0.59991123  0.04309852  0.86552897    -0.28240
H1715       H  0.58564252  0.06225869  0.90756483     0.15960
H1716       H  0.58939189  0.02494969  0.84419440     0.16530
C1717       C  0.53905749  0.07913574  0.87173577    -0.13060
C1718       C  0.54255342  0.10163038  0.89590126    -0.28240
H1719       H  0.55329926  0.08854843  0.84813867     0.15960
H1720       H  0.52729644  0.09149483  0.91897397     0.16530
C1721       C  0.95999496  0.42852737  0.86473571    -0.13060
C1722       C  0.95784825  0.40618275  0.88816354    -0.28240
H1723       H  0.94463992  0.41879982  0.84129913     0.15960
H1724       H  0.97343776  0.41660679  0.91146146     0.16530
C1725       C  0.92208982  0.46540654  0.86348422    -0.13060
C1726       C  0.89881387  0.44062481  0.88458276    -0.28240
H1727       H  0.91254560  0.47375901  0.84242918     0.15960
H1728       H  0.90964543  0.43334961  0.90557058     0.16530
C1729       C  0.54059590  0.44876045  0.86007045    -0.13060
C1730       C  0.53868251  0.46904116  0.88374439    -0.28240
H1731       H  0.52508043  0.44331151  0.83677211     0.15960
H1732       H  0.55392755  0.47487004  0.90720627     0.16530
C1733       C  0.64581339  0.44687930  0.90789844    -0.09900
C1734       C  0.67206159  0.45993767  0.92620342    -0.11460
C1735       C  0.94673525  0.04807958  0.85014667    -0.13060
C1736       C  0.96159125  0.04125738  0.87623373    -0.28240
H1737       H  0.95111381  0.04252161  0.82454717     0.15960
H1738       H  0.95941145  0.04915140  0.90160567     0.16530
C1739       C  0.85087246  0.05721821  0.90659765    -0.09900
C1740       C  0.82641018  0.04472804  0.92635699    -0.11460
C1741       C  0.84532135  0.28793715  0.66509544    -0.09900
C1742       C  0.82003626  0.27544311  0.68391841    -0.11460
C1743       C  0.73193329  0.04927615  0.68563361    -0.09900
C1744       C  0.72074506  0.06294597  0.66733088    -0.11460
C1745       C  0.66660062  0.21142869  0.68525728    -0.09900
C1746       C  0.64177021  0.20029671  0.66532298    -0.11460
C1747       C  0.78657806  0.43599968  0.66473150    -0.09960
C1748       C  0.77591045  0.44950236  0.68378816    -0.11460
C1749       C  0.58047807  0.04335106  0.60850938    -0.13060
C1750       C  0.60276196  0.04176984  0.63097897    -0.28240
H1751       H  0.59083995  0.06277262  0.58882291     0.15960
H1752       H  0.59102661  0.02192668  0.65038840     0.16530
C1753       C  0.53875439  0.07294333  0.62387934    -0.13060
C1754       C  0.54068860  0.09755442  0.60352555    -0.28240
H1755       H  0.55317370  0.08015326  0.64787846     0.15960
H1756       H  0.52558545  0.08953567  0.57981000     0.16530
C1757       C  0.96770632  0.42361364  0.60297672    -0.13060
C1758       C  0.94440701  0.40227839  0.62635869    -0.28240
H1759       H  0.97561009  0.41334710  0.58229091     0.15960
H1760       H  0.93759480  0.41383700  0.64685062     0.16530
C1761       C  0.92449812  0.45527410  0.60362473    -0.13060
C1762       C  0.90269755  0.45556611  0.62717966    -0.28240
H1763       H  0.91346033  0.43716703  0.58237308     0.15960
H1764       H  0.91489234  0.47379374  0.64833883     0.16530
C1765       C  0.54818475  0.47059193  0.60608459    -0.13060
C1766       C  0.54728948  0.44830314  0.62903525    -0.28240
H1767       H  0.56660505  0.47928569  0.58509096     0.15960
H1768       H  0.52833966  0.44043110  0.64966169     0.16530
C1769       C  0.67691472  0.45840179  0.56622149    -0.09900
C1770       C  0.65219744  0.44524036  0.58558751    -0.11460
C1771       C  0.95872816  0.05070443  0.63325841    -0.13060
C1772       C  0.95963939  0.03066731  0.60854905    -0.28240
H1773       H  0.97565294  0.05643237  0.65561192     0.15960
H1774       H  0.94315960  0.02481228  0.58591638     0.16530
C1775       C  0.83020972  0.04248715  0.56599029    -0.09900
C1776       C  0.85524733  0.05501470  0.58569223    -0.11460
C1777       C  0.95125103  0.28127295  0.57197369    -0.09900
C1778       C  0.93740462  0.29263068  0.58974166    -0.11460
C1779       C  0.54785595  0.22867875  0.57346969    -0.09900
C1780       C  0.55994704  0.21489809  0.59022742    -0.11460
C1781       C  0.54971120  0.23016334  0.93738534    -0.09900
C1782       C  0.56319769  0.21784201  0.92054099    -0.11460
C1783       C  0.94044224  0.29229204  0.91532483    -0.09900
C1784       C  0.95384113  0.28091292  0.93367328    -0.11460
C1785       C  0.72608321  0.17365607  0.57406772    -0.09900
C1786       C  0.71583468  0.14890958  0.59253311    -0.11460
C1787       C  0.71105931  0.14545782  0.91621301    -0.09900
C1788       C  0.72125706  0.16990746  0.93550147    -0.11460
C1789       C  0.78751850  0.34796329  0.58935345    -0.09900
C1790       C  0.77524949  0.32194756  0.57181706    -0.11460
C1791       C  0.76875959  0.31586346  0.93375654    -0.09900
C1792       C  0.78002486  0.34051649  0.91508700    -0.11460
C1793       C  0.94391118  0.14917458  0.66139268    -0.09900
C1794       C  0.95672521  0.17545626  0.67833333    -0.11460
C1795       C  0.95057137  0.17576276  0.81330802    -0.09900
C1796       C  0.93582117  0.14933152  0.82946110    -0.11460
C1797       C  0.55753288  0.35220118  0.83245489    -0.09900
C1798       C  0.54482713  0.32687469  0.81425862    -0.11460
C1799       C  0.56433598  0.35230161  0.66010590    -0.09900
C1800       C  0.55083903  0.32656606  0.67730699    -0.11460
O1801       O  0.54695338  0.78529051  0.28243723    -0.71060
O1802       O  0.50389414  0.71390142  0.21431453    -0.71090
O1803       O  0.54883980  0.78466726  0.21443319    -0.71140
O1804       O  0.50171353  0.71475468  0.28210283    -0.71190
O1805       O  0.95251273  0.71984275  0.27703348    -0.71120
O1806       O  0.00048424  0.78965008  0.20985505    -0.71100
O1807       O  0.95499796  0.71896237  0.20917977    -0.71080
O1808       O  0.99822601  0.79021279  0.27776158    -0.71140
Ni1809     Ni  0.52707962  0.74944123  0.24840310     1.25410
Ni1810     Ni  0.97487354  0.75494339  0.24331893     1.25360
C1811       C  0.53018964  0.80002254  0.29195023     0.91120
C1812       C  0.97164065  0.70394523  0.20000722     0.91050
C1813       C  0.53253667  0.79907598  0.20242061     0.91080
C1814       C  0.96827779  0.70502106  0.28914885     0.91250
O1815       O  0.70922511  0.70538068  0.03920188    -0.71060
O1816       O  0.72725368  0.77071617  0.47036421    -0.71090
O1817       O  0.70542770  0.70175100  0.47166302    -0.71140
O1818       O  0.73174114  0.77467111  0.03818366    -0.71190
O1819       O  0.78906627  0.78859134  0.03760448    -0.71120
O1820       O  0.76288059  0.71616089  0.46994608    -0.71100
O1821       O  0.78467769  0.78502114  0.46862873    -0.71080
O1822       O  0.76657095  0.71937149  0.03868210    -0.71140
Ni1823     Ni  0.71616834  0.73715534  0.50522885     1.25410
Ni1824     Ni  0.77768007  0.75245076  0.50333142     1.25360
C1825       C  0.73436978  0.70103998  0.04992822     0.91120
C1826       C  0.75911349  0.78899193  0.45843717     0.91050
C1827       C  0.72992456  0.69708166  0.46004675     0.91080
C1828       C  0.76462925  0.79367621  0.04845614     0.91250
O1829       O  0.95502174  0.73822844  0.46809834    -0.71060
O1830       O  0.99976031  0.71710183  0.03885599    -0.71090
O1831       O  0.95434655  0.74117690  0.03850291    -0.71140
O1832       O  0.00068883  0.71444010  0.47063683    -0.71190
O1833       O  0.54743165  0.77148257  0.47145390    -0.71120
O1834       O  0.50194016  0.79561480  0.03836023    -0.71100
O1835       O  0.54782171  0.77192658  0.03929960    -0.71080
O1836       O  0.50124138  0.79458324  0.47124117    -0.71140
Ni1837     Ni  0.97555385  0.72495705  0.50332049     1.25410
Ni1838     Ni  0.52628644  0.78527102  0.50543115     1.25360
C1839       C  0.97142772  0.76958703  0.45720035     0.91120
C1840       C  0.53150323  0.74024421  0.04944146     0.91050
C1841       C  0.97058901  0.77271546  0.04971010     0.91080
C1842       C  0.53136545  0.73987709  0.46051955     0.91250
C1843       C  0.88567205  0.56946444  0.10562387     0.06500
C1844       C  0.89799722  0.60141346  0.12223971    -0.09650
C1845       C  0.92938572  0.61632227  0.14224273     0.04000
C1846       C  0.94855055  0.59945241  0.14548092    -0.08180
C1847       C  0.93669203  0.56770464  0.12847584     0.06490
C1848       C  0.90467516  0.55248706  0.10894388    -0.07600
H1849       H  0.88332518  0.61462372  0.11954606     0.12080
H1850       H  0.97305965  0.61135066  0.16080256     0.09610
H1851       H  0.89427502  0.52745224  0.09636008     0.09460
C1852       C  0.57507748  0.88326926  0.14165209     0.06500
C1853       C  0.60691734  0.89808784  0.12310081    -0.09650
C1854       C  0.61847985  0.92892616  0.10523412     0.04000
C1855       C  0.59831949  0.94487861  0.10587523    -0.08180
C1856       C  0.56591428  0.92976518  0.12393580     0.06490
C1857       C  0.55473414  0.89907282  0.14206851    -0.07600
H1858       H  0.62255490  0.88573562  0.12256508     0.12080
H1859       H  0.60834700  0.96913734  0.09247436     0.09610
H1860       H  0.52999073  0.88729976  0.15640065     0.09460
C1861       C  0.98124862  0.51491032  0.10932726     0.05650
C1862       C  0.96357583  0.97815036  0.10672926     0.05650
C1863       C  0.98443446  0.96253180  0.10544334     0.05650
C1864       C  0.52249605  0.98366120  0.10520823     0.05650
C1865       C  0.54009281  0.52043137  0.11087624     0.05650
C1866       C  0.51922566  0.53564510  0.11474930     0.05650
C1867       C  0.80443269  0.92339846  0.14556385     0.06500
C1868       C  0.78578666  0.89166982  0.12732256    -0.09650
C1869       C  0.80520159  0.88053216  0.10860979     0.04000
C1870       C  0.84309759  0.90121954  0.10815046    -0.08180
C1871       C  0.86185141  0.93321088  0.12613408     0.06490
C1872       C  0.84219277  0.94385200  0.14490612    -0.07600
H1873       H  0.75652094  0.87572299  0.12784924     0.12080
H1874       H  0.85767964  0.89185492  0.09428679     0.09610
H1875       H  0.85640085  0.96829464  0.15913901     0.09460
C1876       C  0.57120443  0.69377381  0.10582389     0.06500
C1877       C  0.60097434  0.70802892  0.12795381    -0.09650
C1878       C  0.61127811  0.68625626  0.14247055     0.04000
C1879       C  0.59176805  0.65032225  0.13489801    -0.08180
C1880       C  0.56139680  0.63570366  0.11305094     0.06490
C1881       C  0.55160873  0.65781766  0.09839179    -0.07600
H1882       H  0.61614236  0.73587645  0.13366585     0.12080
H1883       H  0.60086004  0.63418318  0.14565414     0.09610
H1884       H  0.52857031  0.64699510  0.08120173     0.09460
C1885       C  0.70072799  0.57561318  0.14857763     0.06500
C1886       C  0.71846281  0.60698196  0.13041502    -0.09650
C1887       C  0.69809871  0.61783131  0.11261969     0.04000
C1888       C  0.66023517  0.59729282  0.11309753    -0.08180
C1889       C  0.64231477  0.56548674  0.13074066     0.06490
C1890       C  0.66292870  0.55516718  0.14862651    -0.07600
H1891       H  0.74774105  0.62276377  0.13015139     0.12080
H1892       H  0.64515543  0.60657759  0.09985182     0.09610
H1893       H  0.64945571  0.53087328  0.16254805     0.09460
C1894       C  0.92343868  0.81038703  0.10956605     0.06500
C1895       C  0.94064587  0.84692725  0.10861462    -0.09650
C1896       C  0.92604719  0.86399634  0.12579374     0.04000
C1897       C  0.89445453  0.84395281  0.14440233    -0.08180
C1898       C  0.87728171  0.80745933  0.14552142     0.06490
C1899       C  0.89168080  0.79057468  0.12798727    -0.07600
H1900       H  0.96561813  0.86175292  0.09491966     0.12080
H1901       H  0.88314901  0.85681395  0.15811142     0.09610
H1902       H  0.87841062  0.76230731  0.12881448     0.09460
C1903       C  0.88198001  0.57301713  0.38394883     0.06500
C1904       C  0.89319208  0.60465769  0.36767447    -0.09650
C1905       C  0.92335687  0.61922023  0.34679872     0.04000
C1906       C  0.94226033  0.60237380  0.34216222    -0.08180
C1907       C  0.93178508  0.57119930  0.35880889     0.06490
C1908       C  0.90114311  0.55626170  0.37949707    -0.07600
H1909       H  0.87860603  0.61782974  0.37123835     0.12080
H1910       H  0.96570171  0.61397165  0.32602149     0.09610
H1911       H  0.89192860  0.53159438  0.39192081     0.09460
C1912       C  0.57170019  0.88572864  0.35194083     0.06500
C1913       C  0.60318813  0.90140733  0.37185695    -0.09650
C1914       C  0.61473507  0.93326437  0.38843116     0.04000
C1915       C  0.59460087  0.94922118  0.38521229    -0.08180
C1916       C  0.56271227  0.93324708  0.36534712     0.06490
C1917       C  0.55175876  0.90168917  0.34856703    -0.07600
H1918       H  0.61869010  0.88901077  0.37429409     0.12080
H1919       H  0.60419575  0.97418659  0.39765374     0.09610
H1920       H  0.52744198  0.88935857  0.33293824     0.09460
C1921       C  0.97858107  0.52017264  0.37316263     0.05650
C1922       C  0.96020061  0.98324620  0.36996799     0.05650
C1923       C  0.97886717  0.96544069  0.37148406     0.05650
C1924       C  0.51716646  0.98592873  0.37812773     0.05650
C1925       C  0.53585693  0.52196027  0.38014047     0.05650
C1926       C  0.51736128  0.53960615  0.37667052     0.05650
C1927       C  0.69793350  0.57236323  0.35929302     0.06500
C1928       C  0.71479828  0.60292269  0.37938562    -0.09650
C1929       C  0.69372677  0.61380727  0.39547564     0.04000
C1930       C  0.65606731  0.59419300  0.39138161    -0.08180
C1931       C  0.63893269  0.56323037  0.37173948     0.06490
C1932       C  0.66022836  0.55275002  0.35564072    -0.07600
H1933       H  0.74397039  0.61814068  0.38233331     0.12080
H1934       H  0.64055551  0.60367816  0.40323384     0.09610
H1935       H  0.64737520  0.52914299  0.34012870     0.09460
C1936       C  0.57309982  0.69686669  0.40178682     0.06500
C1937       C  0.55279978  0.66050713  0.40567379    -0.09650
C1938       C  0.56274289  0.63927634  0.38937358     0.04000
C1939       C  0.59412294  0.65514135  0.36960842    -0.08180
C1940       C  0.61443514  0.69154717  0.36551908     0.06490
C1941       C  0.60388995  0.71249495  0.38160738    -0.07600
H1942       H  0.52892767  0.64864842  0.42125614     0.12080
H1943       H  0.60322898  0.63953920  0.35762189     0.09610
H1944       H  0.61953045  0.74067123  0.37852338     0.09460
C1945       C  0.80236322  0.91796434  0.36108416     0.06500
C1946       C  0.84019310  0.93571338  0.36305071    -0.09650
C1947       C  0.85731338  0.92165061  0.38143453     0.04000
C1948       C  0.83601842  0.88997553  0.39821951    -0.08180
C1949       C  0.79828463  0.87215709  0.39661692     0.06490
C1950       C  0.78128523  0.88604266  0.37792046    -0.07600
H1951       H  0.85590704  0.96071256  0.35070522     0.12080
H1952       H  0.84892794  0.87911857  0.41279375     0.09610
H1953       H  0.75203990  0.87230730  0.37667133     0.09460
C1954       C  0.92801425  0.80992215  0.39652033     0.06500
C1955       C  0.94735213  0.84639468  0.39999459    -0.09650
C1956       C  0.93557387  0.86614195  0.38365018     0.04000
C1957       C  0.90353439  0.84876096  0.36406013    -0.08180
C1958       C  0.88402540  0.81215750  0.36061524     0.06490
C1959       C  0.89633559  0.79269557  0.37679677    -0.07600
H1960       H  0.97178098  0.85949798  0.41545734     0.12080
H1961       H  0.89325148  0.86337414  0.35202286     0.09610
H1962       H  0.88124522  0.76438737  0.37428121     0.09460
O1963       O  0.73452313  0.95244852  0.28840131    -0.71060
O1964       O  0.71360567  0.00025294  0.22072633    -0.71090
O1965       O  0.73423465  0.95280516  0.22015293    -0.71140
O1966       O  0.71366537  0.99985130  0.28884914    -0.71190
O1967       O  0.77217230  0.54376398  0.28912913    -0.71120
O1968       O  0.79272536  0.49710105  0.21973809    -0.71100
O1969       O  0.77246422  0.54487381  0.22089410    -0.71080
O1970       O  0.79265140  0.49604442  0.28797663    -0.71140
Ni1971     Ni  0.72194344  0.97478391  0.25452768     1.25410
Ni1972     Ni  0.78459573  0.52199442  0.25449138     1.25360
C1973       C  0.76701468  0.96645283  0.29954083     0.91120
C1974       C  0.74006444  0.53109729  0.20963391     0.91050
C1975       C  0.76662428  0.96698641  0.20960208     0.91080
C1976       C  0.73964825  0.52960161  0.29939553     0.91250
O1977       O  0.78939138  0.99657139  0.02886103    -0.71060
O1978       O  0.71653822  0.95960411  0.46043509    -0.71090
O1979       O  0.78994731  0.99989087  0.46044093    -0.71140
O1980       O  0.71634568  0.95625996  0.02930240    -0.71190
O1981       O  0.71438249  0.50460304  0.02972187    -0.71120
O1982       O  0.78578679  0.54650547  0.46230327    -0.71100
O1983       O  0.71244538  0.50640248  0.46333908    -0.71080
O1984       O  0.78743961  0.54481881  0.02951127    -0.71140
Ni1985     Ni  0.75209222  0.97535591  0.99492526     1.25410
Ni1986     Ni  0.75017116  0.52711482  0.99561928     1.25360
C1987       C  0.80088583  0.52704794  0.03945174     0.91120
C1988       C  0.70277404  0.97736256  0.45125195     0.91050
C1989       C  0.79878913  0.52913938  0.45006709     0.91080
C1990       C  0.70325551  0.97351048  0.04153236     0.91250
O1991       O  0.70401198  0.70321286  0.22156017    -0.71060
O1992       O  0.77921841  0.73649480  0.28881168    -0.71090
O1993       O  0.70624357  0.70642729  0.28979733    -0.71140
O1994       O  0.77685998  0.73317432  0.22067879    -0.71190
O1995       O  0.78392348  0.78605903  0.21905407    -0.71120
O1996       O  0.71339219  0.75933742  0.28809972    -0.71100
O1997       O  0.78628089  0.78937274  0.28707885    -0.71080
O1998       O  0.71120035  0.75614766  0.21992098    -0.71140
Ni1999     Ni  0.74128877  0.71789709  0.25529605     1.25410
Ni2000     Ni  0.74894290  0.77461321  0.25349165     1.25360
C2001       C  0.69526994  0.72423730  0.20987858     0.91120
C2002       C  0.79536617  0.76854114  0.29853676     0.91050
C2003       C  0.69805547  0.72838033  0.29999812     0.91080
C2004       C  0.79217513  0.76416463  0.20886362     0.91250
C2005       C  0.82509340  0.78185669  0.32206209    -0.09900
C2006       C  0.85146998  0.79480488  0.34027034    -0.11460
C2007       C  0.78589875  0.93299818  0.34138703    -0.09900
C2008       C  0.77575406  0.94773759  0.32323091    -0.11460
C2009       C  0.64558359  0.70693789  0.34408730    -0.09900
C2010       C  0.67035152  0.71765731  0.32472338    -0.11460
C2011       C  0.73065927  0.54772488  0.32351451    -0.09900
C2012       C  0.71849820  0.56078763  0.34135563    -0.11460
C2013       C  0.57546074  0.54299079  0.38697455    -0.13060
C2014       C  0.59911683  0.54164750  0.36654487    -0.28240
H2015       H  0.58463435  0.56090937  0.40834840     0.15960
H2016       H  0.58869406  0.52344421  0.34525153     0.16530
C2017       C  0.53860436  0.57791803  0.37139375    -0.13060
C2018       C  0.54000662  0.60082203  0.39401115    -0.28240
H2019       H  0.55470016  0.58690262  0.34877696     0.15960
H2020       H  0.52313268  0.59094192  0.41618664     0.16530
C2021       C  0.95824776  0.92696737  0.36551989    -0.13060
C2022       C  0.95684954  0.90465066  0.38863409    -0.28240
H2023       H  0.94244201  0.91716511  0.34233153     0.15960
H2024       H  0.97286986  0.91510916  0.41169755     0.16530
C2025       C  0.92052430  0.96413794  0.36378233    -0.13060
C2026       C  0.89718050  0.93968384  0.38506598    -0.28240
H2027       H  0.91103540  0.97247226  0.34266201     0.15960
H2028       H  0.90791115  0.93235855  0.40610176     0.16530
C2029       C  0.54068537  0.94907648  0.36055246    -0.13060
C2030       C  0.53790604  0.96884567  0.38421707    -0.28240
H2031       H  0.52530065  0.94340756  0.33714041     0.15960
H2032       H  0.55305098  0.97490596  0.40776785     0.16530
C2033       C  0.64702302  0.94936318  0.40908225    -0.09900
C2034       C  0.67323176  0.96236401  0.42747052    -0.11460
C2035       C  0.95354562  0.55513115  0.35400905    -0.13060
C2036       C  0.95750324  0.53686835  0.37827083    -0.28240
H2037       H  0.96817388  0.55981472  0.33061612     0.15960
H2038       H  0.94405633  0.53258659  0.40224922     0.16530
C2039       C  0.85134633  0.55800474  0.40589523    -0.09900
C2040       C  0.82665160  0.54501223  0.42538619    -0.11460
C2041       C  0.84543522  0.78797601  0.16561656    -0.09900
C2042       C  0.82009387  0.77525254  0.18439067    -0.11460
C2043       C  0.73158902  0.54993564  0.18596149    -0.09900
C2044       C  0.72036336  0.56367486  0.16779906    -0.11460
C2045       C  0.66659635  0.71163211  0.18528660    -0.09900
C2046       C  0.64176212  0.70056970  0.16537727    -0.11460
C2047       C  0.78577721  0.93541221  0.16593692    -0.09960
C2048       C  0.77506016  0.94886609  0.18500651    -0.11460
C2049       C  0.58001143  0.54380573  0.10897952    -0.13060
C2050       C  0.60229573  0.54237273  0.13155696    -0.28240
H2051       H  0.59035310  0.56314859  0.08922000     0.15960
H2052       H  0.59057004  0.52258043  0.15101424     0.16530
C2053       C  0.53818408  0.57322540  0.12455725    -0.13060
C2054       C  0.54004931  0.59780255  0.10418269    -0.28240
H2055       H  0.55270473  0.58046963  0.14850000     0.15960
H2056       H  0.52483514  0.58971839  0.08052819     0.16530
C2057       C  0.96661415  0.92384463  0.10253001    -0.13060
C2058       C  0.94352002  0.90262766  0.12611102    -0.28240
H2059       H  0.97445019  0.91346520  0.08188886     0.15960
H2060       H  0.93670380  0.91423649  0.14654937     0.16530
C2061       C  0.92350468  0.95558959  0.10340222    -0.13060
C2062       C  0.90186862  0.95574865  0.12722150    -0.28240
H2063       H  0.91234349  0.93755320  0.08210694     0.15960
H2064       H  0.91419284  0.97392362  0.14840262     0.16530
C2065       C  0.54485283  0.96793217  0.10200885    -0.13060
C2066       C  0.54341399  0.94546831  0.12508936    -0.28240
H2067       H  0.56359003  0.97654032  0.08128166     0.15960
H2068       H  0.52422237  0.93772414  0.14548604     0.16530
C2069       C  0.67549322  0.95742387  0.06616814    -0.09900
C2070       C  0.65038866  0.94396981  0.08510835    -0.11460
C2071       C  0.95837229  0.55125297  0.13146458    -0.13060
C2072       C  0.95941530  0.53128623  0.10675788    -0.28240
H2073       H  0.97516729  0.55692791  0.15390314     0.15960
H2074       H  0.94305660  0.52551136  0.08405244     0.16530
C2075       C  0.82925659  0.54189053  0.06430626    -0.09900
C2076       C  0.85429839  0.55454747  0.08398035    -0.11460
C2077       C  0.95273155  0.78261044  0.07329601    -0.09900
C2078       C  0.93852346  0.79365271  0.09097490    -0.11460
C2079       C  0.54888286  0.72969394  0.07302534    -0.09900
C2080       C  0.56072448  0.71565297  0.08973379    -0.11460
C2081       C  0.54906598  0.73000664  0.43681497    -0.09900
C2082       C  0.56188071  0.71746902  0.41931988    -0.11460
C2083       C  0.94068012  0.79076680  0.41451617    -0.09900
C2084       C  0.95399441  0.77906247  0.43258184    -0.11460
C2085       C  0.72572645  0.67413744  0.07430652    -0.09900
C2086       C  0.71529201  0.64945995  0.09289749    -0.11460
C2087       C  0.70996135  0.64479816  0.41671535    -0.09900
C2088       C  0.72006762  0.66935496  0.43585983    -0.11460
C2089       C  0.78682931  0.84803777  0.08953175    -0.09900
C2090       C  0.77491267  0.82218634  0.07180457    -0.11460
C2091       C  0.76696637  0.81547673  0.43393197    -0.09900
C2092       C  0.77807013  0.84024577  0.41544169    -0.11460
C2093       C  0.94216977  0.64887996  0.15977821    -0.09900
C2094       C  0.95473111  0.67514690  0.17668366    -0.11460
C2095       C  0.94958484  0.67720727  0.31252624    -0.09900
C2096       C  0.93567117  0.65148809  0.32967361    -0.11460
C2097       C  0.55972646  0.85367302  0.33387974    -0.09900
C2098       C  0.54697922  0.82808500  0.31601801    -0.11460
C2099       C  0.56302640  0.85204719  0.16078885    -0.09900
C2100       C  0.55036992  0.82687584  0.17874427    -0.11460
O2101       O  0.54668759  0.78485192  0.78049359    -0.71060
O2102       O  0.50276103  0.71252118  0.71322364    -0.71090
O2103       O  0.54835123  0.78324548  0.71247691    -0.71140
O2104       O  0.50102496  0.71441533  0.78095863    -0.71190
O2105       O  0.95279205  0.72050719  0.77716541    -0.71120
O2106       O  0.00077079  0.78986288  0.70953457    -0.71100
O2107       O  0.95547535  0.71916112  0.70929323    -0.71080
O2108       O  0.99820603  0.79092191  0.77739851    -0.71140
Ni2109     Ni  0.52643276  0.74853747  0.74686438     1.25410
Ni2110     Ni  0.97511414  0.75537093  0.74318791     1.25360
C2111       C  0.53010393  0.79984411  0.78979300     0.91120
C2112       C  0.97225457  0.70419840  0.70040745     0.91050
C2113       C  0.53231052  0.79779958  0.70020912     0.91080
C2114       C  0.96872462  0.70598862  0.78964401     0.91250
O2115       O  0.70903066  0.70459419  0.53997320    -0.71060
O2116       O  0.72949044  0.77245636  0.96993955    -0.71090
O2117       O  0.70728232  0.70336777  0.97089711    -0.71140
O2118       O  0.73128462  0.77379023  0.53856382    -0.71190
O2119       O  0.78861612  0.78784898  0.53672462    -0.71120
O2120       O  0.76469663  0.71754686  0.97040267    -0.71100
O2121       O  0.78688072  0.78655372  0.96945202    -0.71080
O2122       O  0.76638980  0.71873308  0.53822158    -0.71140
Ni2123     Ni  0.71736005  0.73842710  0.00459615     1.25410
Ni2124     Ni  0.77884585  0.75352598  0.00403243     1.25360
C2125       C  0.73450173  0.70051872  0.55019420     0.91120
C2126       C  0.76166328  0.79078059  0.95869486     0.91050
C2127       C  0.73194120  0.69864173  0.95987652     0.91080
C2128       C  0.76440876  0.79297819  0.54813478     0.91250
O2129       O  0.95462174  0.74115513  0.97041301    -0.71060
O2130       O  0.99937451  0.71548669  0.53845130    -0.71090
O2131       O  0.95399032  0.73957366  0.53618186    -0.71140
O2132       O  0.00014367  0.71731722  0.97092639    -0.71190
O2133       O  0.54864429  0.77246672  0.97120067    -0.71120
O2134       O  0.50182020  0.79520094  0.53933641    -0.71100
O2135       O  0.54792611  0.77174571  0.53952674    -0.71080
O2136       O  0.50256204  0.79566458  0.97029582    -0.71140
Ni2137     Ni  0.97552433  0.72721686  0.00466020     1.25410
Ni2138     Ni  0.52693710  0.78593202  0.00486008     1.25360
C2139       C  0.97097318  0.77268533  0.95998399     0.91120
C2140       C  0.53194557  0.74016795  0.54990181     0.91050
C2141       C  0.97018455  0.77129881  0.54689330     0.91080
C2142       C  0.53269788  0.74100169  0.95991586     0.91250
C2143       C  0.88652986  0.56971938  0.60589994     0.06500
C2144       C  0.89889297  0.60170831  0.62247074    -0.09650
C2145       C  0.93017517  0.61653946  0.64262502     0.04000
C2146       C  0.94918298  0.59954505  0.64608464    -0.08180
C2147       C  0.93729834  0.56774700  0.62917476     0.06490
C2148       C  0.90541849  0.55262862  0.60942598    -0.07600
H2149       H  0.88430923  0.61499318  0.61965333     0.12080
H2150       H  0.97358302  0.61136782  0.66155906     0.09610
H2151       H  0.89500749  0.52756908  0.59689247     0.09460
C2152       C  0.57578955  0.88228870  0.63992244     0.06500
C2153       C  0.60765931  0.89735331  0.62136533    -0.09650
C2154       C  0.61941351  0.92860044  0.60412795     0.04000
C2155       C  0.59938714  0.94468774  0.60541905    -0.08180
C2156       C  0.56699279  0.92934870  0.62352752     0.06490
C2157       C  0.55564453  0.89826875  0.64099868    -0.07600
H2158       H  0.62317993  0.88489727  0.62036221     0.12080
H2159       H  0.60950201  0.96923135  0.59251437     0.09610
H2160       H  0.53090440  0.88632855  0.65535067     0.09460
C2161       C  0.98180927  0.51463006  0.61126430     0.05650
C2162       C  0.96470972  0.97784545  0.60659784     0.05650
C2163       C  0.98582530  0.96250563  0.60507105     0.05650
C2164       C  0.52343421  0.98343514  0.60642782     0.05650
C2165       C  0.54100444  0.52175239  0.61367607     0.05650
C2166       C  0.51923361  0.53603809  0.61717252     0.05650
C2167       C  0.80552310  0.92327395  0.64480162     0.06500
C2168       C  0.78679322  0.89156827  0.62654373    -0.09650
C2169       C  0.80612284  0.88021381  0.60800530     0.04000
C2170       C  0.84405155  0.90069002  0.60772857    -0.08180
C2171       C  0.86288679  0.93264828  0.62577408     0.06490
C2172       C  0.84329119  0.94348490  0.64436892    -0.07600
H2173       H  0.75751393  0.87580110  0.62691894     0.12080
H2174       H  0.85859540  0.89121443  0.59396755     0.09610
H2175       H  0.85755864  0.96791275  0.65862254     0.09460
C2176       C  0.57282452  0.69419137  0.60533828     0.06500
C2177       C  0.60306550  0.70842938  0.62690403    -0.09650
C2178       C  0.61306692  0.68648123  0.64158208     0.04000
C2179       C  0.59275594  0.65040274  0.63474958    -0.08180
C2180       C  0.56197432  0.63585831  0.61344330     0.06490
C2181       C  0.55254076  0.65811501  0.59854135    -0.07600
H2182       H  0.61874507  0.73636706  0.63214579     0.12080
H2183       H  0.60147042  0.63401275  0.64565668     0.09610
H2184       H  0.52916347  0.64729076  0.58177236     0.09460
C2185       C  0.70148563  0.57654609  0.65064522     0.06500
C2186       C  0.71933971  0.60754619  0.63193285    -0.09650
C2187       C  0.69910145  0.61868305  0.61436683     0.04000
C2188       C  0.66125206  0.59880296  0.61560592    -0.08180
C2189       C  0.64320411  0.56733081  0.63375120     0.06490
C2190       C  0.66369408  0.55674728  0.65145163    -0.07600
H2191       H  0.74860656  0.62279283  0.63102782     0.12080
H2192       H  0.64628439  0.60826261  0.60244492     0.09610
H2193       H  0.65012215  0.53266758  0.66570265     0.09460
C2194       C  0.92421484  0.80997131  0.60725445     0.06500
C2195       C  0.94169943  0.84656919  0.60661006    -0.09650
C2196       C  0.92775287  0.86374840  0.62468443     0.04000
C2197       C  0.89654831  0.84375857  0.64379573    -0.08180
C2198       C  0.87910714  0.80724400  0.64458520     0.06490
C2199       C  0.89285003  0.79024597  0.62622307    -0.07600
H2200       H  0.96635023  0.86132775  0.59244845     0.12080
H2201       H  0.88570564  0.85668219  0.65812741     0.09610
H2202       H  0.87936115  0.76194977  0.62680817     0.09460
C2203       C  0.88403860  0.57415902  0.88477789     0.06500
C2204       C  0.89486145  0.60577002  0.86863986    -0.09650
C2205       C  0.92552761  0.62115327  0.84840118     0.04000
C2206       C  0.94542267  0.60521930  0.84436612    -0.08180
C2207       C  0.93522032  0.57394344  0.86072241     0.06490
C2208       C  0.90400721  0.55817050  0.88072476    -0.07600
H2209       H  0.87951143  0.61823328  0.87173029     0.12080
H2210       H  0.96920568  0.61743658  0.82865801     0.09610
H2211       H  0.89481336  0.53337031  0.89283410     0.09460
C2212       C  0.57067615  0.88478577  0.85084364     0.06500
C2213       C  0.60177509  0.89993485  0.87126160    -0.09650
C2214       C  0.61309730  0.93143086  0.88842358     0.04000
C2215       C  0.59316689  0.94758246  0.88529007    -0.08180
C2216       C  0.56159320  0.93212533  0.86500294     0.06490
C2217       C  0.55081896  0.90087325  0.84765185    -0.07600
H2218       H  0.61719733  0.88744560  0.87358092     0.12080
H2219       H  0.60276797  0.97235861  0.89811154     0.09610
H2220       H  0.52678907  0.88894166  0.83164917     0.09460
C2221       C  0.98072652  0.52128074  0.87350760     0.05650
C2222       C  0.96202445  0.98641666  0.86819569     0.05650
C2223       C  0.98037345  0.96832384  0.87036679     0.05650
C2224       C  0.51763845  0.98634363  0.87770485     0.05650
C2225       C  0.53791438  0.52383722  0.87962280     0.05650
C2226       C  0.51940001  0.54147983  0.87623619     0.05650
C2227       C  0.69988340  0.57326140  0.86005550     0.06500
C2228       C  0.71683762  0.60391733  0.87999474    -0.09650
C2229       C  0.69588323  0.61516044  0.89568489     0.04000
C2230       C  0.65823577  0.59578578  0.89135762    -0.08180
C2231       C  0.64101937  0.56473928  0.87183299     0.06490
C2232       C  0.66221172  0.55391255  0.85613421    -0.07600
H2233       H  0.74599337  0.61894341  0.88311795     0.12080
H2234       H  0.64279997  0.60551062  0.90291851     0.09610
H2235       H  0.64930169  0.53023776  0.84071732     0.09460
C2236       C  0.57488072  0.69874268  0.90080160     0.06500
C2237       C  0.55472373  0.66240299  0.90475849    -0.09650
C2238       C  0.56460778  0.64121045  0.88830908     0.04000
C2239       C  0.59577870  0.65710377  0.86825143    -0.08180
C2240       C  0.61596244  0.69351129  0.86408664     0.06490
C2241       C  0.60547433  0.71441766  0.88036411    -0.07600
H2242       H  0.53101161  0.65052496  0.92055454     0.12080
H2243       H  0.60485687  0.64154237  0.85613261     0.09610
H2244       H  0.62102143  0.74259088  0.87725266     0.09460
C2245       C  0.80389733  0.91913551  0.86075403     0.06500
C2246       C  0.84174626  0.93778485  0.86282318    -0.09650
C2247       C  0.85955455  0.92471309  0.88159027     0.04000
C2248       C  0.83893893  0.89311409  0.89871543    -0.08180
C2249       C  0.80115313  0.87435469  0.89695234     0.06490
C2250       C  0.78347652  0.88727427  0.87783690    -0.07600
H2251       H  0.85698490  0.96271278  0.85024037     0.12080
H2252       H  0.85241158  0.88301542  0.91356592     0.09610
H2253       H  0.75420364  0.87283491  0.87644645     0.09460
C2254       C  0.92793460  0.81308513  0.89868150     0.06500
C2255       C  0.94734759  0.84959178  0.90159988    -0.09650
C2256       C  0.93600943  0.86917134  0.88423662     0.04000
C2257       C  0.90430688  0.85159409  0.86418866    -0.08180
C2258       C  0.88470970  0.81493594  0.86130957     0.06490
C2259       C  0.89660333  0.79564615  0.87850945    -0.07600
H2260       H  0.97154085  0.86285814  0.91737126     0.12080
H2261       H  0.89437431  0.86610439  0.85132938     0.09610
H2262       H  0.88148707  0.76730807  0.87638243     0.09460
O2263       O  0.73542920  0.95239147  0.78719760    -0.71060
O2264       O  0.71500926  0.00069094  0.71969482    -0.71090
O2265       O  0.73539936  0.95307192  0.71895660    -0.71140
O2266       O  0.71480121  0.99991252  0.78782460    -0.71190
O2267       O  0.77348452  0.54388352  0.79008480    -0.71120
O2268       O  0.79330341  0.49714510  0.72025367    -0.71100
O2269       O  0.77322603  0.54502527  0.72187768    -0.71080
O2270       O  0.79375803  0.49602435  0.78847087    -0.71140
Ni2271     Ni  0.72309170  0.97496651  0.75339422     1.25410
Ni2272     Ni  0.78553525  0.52206122  0.75521761     1.25360
C2273       C  0.76786168  0.96631270  0.79846534     0.91120
C2274       C  0.74075204  0.53133384  0.71085710     0.91050
C2275       C  0.76782113  0.96720663  0.70851349     0.91080
C2276       C  0.74105170  0.52980528  0.80056333     0.91250
O2277       O  0.79105219  0.99761317  0.52852660    -0.71060
O2278       O  0.71441684  0.95762929  0.96126201    -0.71090
O2279       O  0.78775511  0.99785899  0.96075859    -0.71140
O2280       O  0.71795160  0.95724121  0.52844688    -0.71190
O2281       O  0.71475021  0.50517254  0.53137386    -0.71120
O2282       O  0.78627165  0.54612777  0.96137623    -0.71100
O2283       O  0.71292388  0.50593063  0.96169504    -0.71080
O2284       O  0.78779552  0.54527286  0.53044120    -0.71140
Ni2285     Ni  0.75398934  0.97686488  0.49431472     1.25410
Ni2286     Ni  0.75011209  0.52758845  0.49692282     1.25360
C2287       C  0.80130084  0.52745833  0.54009586     0.91120
C2288       C  0.70064072  0.97528836  0.95179079     0.91050
C2289       C  0.79950029  0.52884689  0.94943221     0.91080
C2290       C  0.70471985  0.97427990  0.54090386     0.91250
O2291       O  0.70616466  0.70392741  0.72085078    -0.71060
O2292       O  0.78096373  0.73821750  0.78868381    -0.71090
O2293       O  0.70796369  0.70804987  0.78905435    -0.71140
O2294       O  0.77903712  0.73392292  0.72057242    -0.71190
O2295       O  0.78606162  0.78675030  0.71792086    -0.71120
O2296       O  0.71501706  0.76087792  0.78634090    -0.71100
O2297       O  0.78792734  0.79100998  0.78591571    -0.71080
O2298       O  0.71332612  0.75680911  0.71820182    -0.71140
Ni2299     Ni  0.74324564  0.71910383  0.75491031     1.25410
Ni2300     Ni  0.75083024  0.77574454  0.75200828     1.25360
C2301       C  0.69745967  0.72477306  0.70858832     0.91120
C2302       C  0.79696562  0.77037880  0.79801589     0.91050
C2303       C  0.69965258  0.73008693  0.79865102     0.91080
C2304       C  0.79437770  0.76472757  0.70831923     0.91250
C2305       C  0.82642935  0.78405332  0.82188726    -0.09900
C2306       C  0.85252513  0.79732215  0.84046664    -0.11460
C2307       C  0.78677973  0.93324440  0.84069478    -0.09900
C2308       C  0.77643045  0.94760472  0.82228129    -0.11460
C2309       C  0.64702167  0.70895399  0.84252869    -0.09900
C2310       C  0.67181578  0.71962615  0.82319506    -0.11460
C2311       C  0.73231871  0.54806560  0.82473189    -0.09900
C2312       C  0.72033060  0.56136211  0.84245602    -0.11460
C2313       C  0.57751217  0.54486691  0.88656359    -0.13060
C2314       C  0.60123507  0.54338135  0.86635570    -0.28240
H2315       H  0.58664593  0.56285671  0.90788192     0.15960
H2316       H  0.59088793  0.52515062  0.84508380     0.16530
C2317       C  0.54063169  0.57975334  0.87073826    -0.13060
C2318       C  0.54202720  0.60278194  0.89317903    -0.28240
H2319       H  0.55668334  0.58859595  0.84809080     0.15960
H2320       H  0.52522659  0.59300758  0.91540934     0.16530
C2321       C  0.95944182  0.92977827  0.86487183    -0.13060
C2322       C  0.95745187  0.90773786  0.88861268    -0.28240
H2323       H  0.94391013  0.91975027  0.84156124     0.15960
H2324       H  0.97319286  0.91849185  0.91178621     0.16530
C2325       C  0.92224471  0.96722951  0.86275395    -0.13060
C2326       C  0.89947288  0.94371539  0.88505376    -0.28240
H2327       H  0.91216645  0.97398643  0.84089399     0.15960
H2328       H  0.91074100  0.93761342  0.90657231     0.16530
C2329       C  0.53987643  0.94832266  0.86026806    -0.13060
C2330       C  0.53779328  0.96867025  0.88377268    -0.28240
H2331       H  0.52434241  0.94266851  0.83695352     0.15960
H2332       H  0.55301829  0.97470264  0.90726214     0.16530
C2333       C  0.64507955  0.94712001  0.90944058    -0.09900
C2334       C  0.67112218  0.96007207  0.92801424    -0.11460
C2335       C  0.95754102  0.55841505  0.85586958    -0.13060
C2336       C  0.95984127  0.53815029  0.87901870    -0.28240
H2337       H  0.97357562  0.56475578  0.83318794     0.15960
H2338       H  0.94467187  0.53184078  0.90217567     0.16530
C2339       C  0.85285683  0.55832612  0.90607942    -0.09900
C2340       C  0.82776054  0.54489440  0.92512447    -0.11460
C2341       C  0.84752682  0.78786678  0.66502247    -0.09900
C2342       C  0.82231152  0.77542302  0.68393447    -0.11460
C2343       C  0.73218056  0.55027927  0.68741454    -0.09900
C2344       C  0.72099439  0.56423456  0.66950814    -0.11460
C2345       C  0.66882072  0.71183771  0.68390440    -0.09900
C2346       C  0.64387062  0.70072287  0.66411058    -0.11460
C2347       C  0.78693616  0.93550372  0.66497617    -0.09960
C2348       C  0.77626267  0.94907580  0.68394110    -0.11460
C2349       C  0.58085656  0.54585718  0.61227453    -0.13060
C2350       C  0.60318424  0.54455185  0.63489391    -0.28240
H2351       H  0.59110628  0.56519830  0.59251499     0.15960
H2352       H  0.59149473  0.52474689  0.65434251     0.16530
C2353       C  0.53719958  0.57357398  0.62671533    -0.13060
C2354       C  0.53996327  0.59782973  0.60535233    -0.28240
H2355       H  0.55102608  0.58125339  0.65101796     0.15960
H2356       H  0.52544251  0.58946051  0.58134424     0.16530
C2357       C  0.96829366  0.92386470  0.60183269    -0.13060
C2358       C  0.94535858  0.90240264  0.62536745    -0.28240
H2359       H  0.97614862  0.91375043  0.58097581     0.15960
H2360       H  0.93865067  0.91385043  0.64604422     0.16530
C2361       C  0.92464063  0.95505545  0.60324782    -0.13060
C2362       C  0.90291134  0.95502496  0.62707401    -0.28240
H2363       H  0.91354761  0.93711839  0.58187029     0.15960
H2364       H  0.91516226  0.97308228  0.64834969     0.16530
C2365       C  0.54585266  0.96780952  0.60270271    -0.13060
C2366       C  0.54463614  0.94516787  0.62542594    -0.28240
H2367       H  0.56442273  0.97657014  0.58182705     0.15960
H2368       H  0.52564252  0.93725162  0.64601499     0.16530
C2369       C  0.67669180  0.95777880  0.56529434    -0.09900
C2370       C  0.65142566  0.94399336  0.58406608    -0.11460
C2371       C  0.95880728  0.55114656  0.63261465    -0.13060
C2372       C  0.95992027  0.53093413  0.60822107    -0.28240
H2373       H  0.97550383  0.55697345  0.65515172     0.15960
H2374       H  0.94363679  0.52495187  0.58543274     0.16530
C2375       C  0.82995647  0.54225413  0.56470165    -0.09900
C2376       C  0.85513673  0.55482645  0.58424057    -0.11460
C2377       C  0.95238613  0.78161428  0.57012981    -0.09900
C2378       C  0.93865597  0.79304213  0.58796895    -0.11460
C2379       C  0.54998665  0.72993657  0.57303719    -0.09900
C2380       C  0.56228431  0.71610508  0.58942464    -0.11460
C2381       C  0.55069073  0.73146700  0.93622649    -0.09900
C2382       C  0.56368092  0.71923201  0.91855984    -0.11460
C2383       C  0.94033250  0.79413580  0.91743243    -0.09900
C2384       C  0.95351705  0.78245968  0.93569700    -0.11460
C2385       C  0.72654963  0.67410575  0.57492272    -0.09900
C2386       C  0.71635004  0.64983768  0.59399120    -0.11460
C2387       C  0.71224720  0.64628916  0.91673261    -0.09900
C2388       C  0.72240540  0.67096053  0.93573308    -0.11460
C2389       C  0.78756400  0.84770166  0.58894856    -0.09900
C2390       C  0.77522985  0.82172530  0.57133332    -0.11460
C2391       C  0.77022826  0.81757554  0.93431066    -0.09900
C2392       C  0.78147812  0.84243110  0.91589297    -0.11460
C2393       C  0.94297804  0.64909860  0.66017847    -0.09900
C2394       C  0.95552910  0.67534481  0.67712245    -0.11460
C2395       C  0.95029645  0.67850624  0.81339349    -0.09900
C2396       C  0.93702673  0.65308538  0.83093697    -0.11460
C2397       C  0.55912400  0.85318934  0.83209568    -0.09900
C2398       C  0.54682681  0.82788085  0.81389413    -0.11460
C2399       C  0.56349714  0.85070750  0.65854460    -0.09900
C2400       C  0.55043931  0.82542068  0.67637958    -0.11460
loop_ 
_geom_bond_atom_site_label_1 
_geom_bond_atom_site_label_2 
_geom_bond_distance 
_geom_bond_site_symmetry_2 
_ccdc_geom_bond_type 
O1           Ni9   1.911       .  S
O1           C11   1.278       .  A
O2           Ni9   1.910       .  S
O2         C1212   1.278   1_455  A
O3           Ni9   1.917       .  S
O3           C13   1.279       .  A
O4           Ni9   1.914       .  S
O4         C1214   1.280   1_455  A
O5          Ni10   1.911       .  S
O5           C14   1.277       .  A
O6          Ni10   1.911       .  S
O6         C1213   1.279       .  A
O7          Ni10   1.917       .  S
O7           C12   1.280       .  A
O8          Ni10   1.914       .  S
O8         C1211   1.280       .  A
Ni9       Ni1210   2.396   1_455  S
Ni10      Ni1209   2.396       .  S
C11        O1208   1.280   1_455  A
C11         C298   1.427       .  S
C12        O1202   1.278       .  A
C12         C294   1.430       .  S
C13        O1206   1.279       .  A
C13         C300   1.431       .  S
C14        O1204   1.280       .  A
C14         C295   1.427       .  S
O15        Ni323   1.922       .  S
O15          C25   1.281       .  A
O16         Ni23   1.920       .  S
O16          C26   1.279       .  A
O17         Ni23   1.926       .  S
O17          C27   1.282       .  A
O18        Ni323   1.926       .  S
O18          C28   1.281       .  A
O19        Ni324   1.919       .  S
O19          C28   1.280       .  A
O20         Ni24   1.918       .  S
O20          C27   1.279       .  A
O21         Ni24   1.921       .  S
O21          C26   1.281       .  A
O22        Ni324   1.924       .  S
O22          C25   1.281       .  A
Ni23        O315   1.920       .  S
Ni23        O318   1.927       .  S
Ni23        Ni24   2.392       .  S
Ni24        O319   1.918       .  S
Ni24        O322   1.924       .  S
C25         C285   1.442       .  S
C26         C291   1.438       .  S
C27         C288   1.440       .  S
C28         C290   1.441       .  S
O29         Ni37   1.913       .  S
O29          C39   1.278       .  A
O30        Ni337   1.910       .  S
O30        C1240   1.279       .  A
O31        Ni337   1.919       .  S
O31          C41   1.280       .  A
O32         Ni37   1.917       .  S
O32        C1242   1.280       .  A
O33         Ni38   1.915       .  S
O33          C42   1.279       .  A
O34        Ni338   1.915       .  S
O34        C1241   1.279   1_455  A
O35        Ni338   1.920       .  S
O35          C40   1.280       .  A
O36         Ni38   1.916       .  S
O36        C1239   1.280   1_455  A
Ni37        O330   1.910       .  S
Ni37        O331   1.919       .  S
Ni37      Ni1238   2.395       .  S
Ni38        O334   1.915       .  S
Ni38        O335   1.919       .  S
Ni38      Ni1237   2.395   1_455  S
C39        O1236   1.280       .  A
C39         C284   1.431       .  S
C40        O1230   1.278       .  A
C40         C279   1.431       .  S
C41        O1234   1.279       .  A
C41         C277   1.433       .  S
C42        O1232   1.280   1_455  A
C42         C281   1.431       .  S
C43         C276   1.435       .  S
C43          C44   1.399       .  A
C43          C48   1.399       .  A
C44          C45   1.399       .  A
C44          H49   1.085       .  S
C45         C293   1.435       .  S
C45          C46   1.401       .  A
C46          C47   1.402       .  A
C46          H50   1.085       .  S
C47          C48   1.407       .  A
C47         C271   1.482       .  S
C48          H51   1.083       .  S
C52         C299   1.436       .  S
C52          C53   1.399       .  A
C52          C57   1.400       .  A
C53          C54   1.400       .  A
C53          H58   1.084       .  S
C54         C270   1.436       .  S
C54          C55   1.399       .  A
C55          C56   1.406       .  A
C55          H59   1.082       .  S
C56          C57   1.402       .  A
C56         C266   1.482       .  S
C57          H60   1.085       .  S
C61         C662   1.417   1_545  A
C61        C1266   1.415       .  A
C61         C272   1.484       .  S
C62          C63   1.415       .  A
C62         C661   1.417       .  A
C62         C261   1.489       .  S
C63        C1264   1.413       .  A
C63         C257   1.488       .  S
C64        C1263   1.413   1_455  A
C64         C665   1.411       .  A
C64         C265   1.483       .  S
C65          C66   1.408       .  A
C65         C664   1.411   1_545  A
C65         C249   1.486       .  S
C66        C1261   1.414   1_455  A
C66         C253   1.484       .  S
C67         C247   1.442       .  S
C67          C68   1.405       .  A
C67          C72   1.398       .  A
C68          C69   1.406       .  A
C68          H73   1.084       .  S
C69         C289   1.446       .  S
C69          C70   1.404       .  A
C70          C71   1.408       .  A
C70          H74   1.083       .  S
C71          C72   1.400       .  A
C71         C262   1.483       .  S
C72          H75   1.085       .  S
C76         C280   1.436       .  S
C76          C77   1.399       .  A
C76          C81   1.401       .  A
C77          C78   1.400       .  A
C77          H82   1.084       .  S
C78         C246   1.440       .  S
C78          C79   1.401       .  A
C79          C80   1.410       .  A
C79          H83   1.083       .  S
C80          C81   1.401       .  A
C80         C254   1.485       .  S
C81          H84   1.085       .  S
C85         C244   1.443       .  S
C85          C86   1.405       .  A
C85          C90   1.399       .  A
C86          C87   1.406       .  A
C86          H91   1.084       .  S
C87         C286   1.447       .  S
C87          C88   1.402       .  A
C88          C89   1.409       .  A
C88          H92   1.082       .  S
C89          C90   1.400       .  A
C89         C250   1.486       .  S
C90          H93   1.085       .  S
C94         C278   1.439       .  S
C94          C95   1.402       .  A
C94          C99   1.401       .  A
C95          C96   1.407       .  A
C95         H100   1.082       .  S
C96          C97   1.402       .  A
C96         C258   1.484       .  S
C97          C98   1.400       .  A
C97         H101   1.085       .  S
C98         C241   1.439       .  S
C98          C99   1.400       .  A
C99         H102   1.084       .  S
C103        C239   1.439       .  S
C103        C104   1.401       .  A
C103        C108   1.402       .  A
C104        C105   1.399       .  A
C104        H109   1.084       .  S
C105        C296   1.432       .  S
C105        C106   1.397       .  A
C106        C107   1.397       .  A
C106        H110   1.085       .  S
C107        C108   1.409       .  A
C107        C235   1.481       .  S
C108        H111   1.083       .  S
C112        C297   1.432       .  S
C112        C113   1.398       .  A
C112        C117   1.397       .  A
C113        C114   1.400       .  A
C113        H118   1.085       .  S
C114        C233   1.439       .  S
C114        C115   1.403       .  A
C115        C116   1.409       .  A
C115        H119   1.083       .  S
C116        C117   1.398       .  A
C116        C229   1.480       .  S
C117        H120   1.085       .  S
C121        C722   1.405   1_545  A
C121       C1326   1.405       .  A
C121        C236   1.478       .  S
C122        C123   1.414       .  A
C122        C721   1.406       .  A
C122        C225   1.485       .  S
C123       C1324   1.420       .  A
C123        C221   1.485       .  S
C124       C1323   1.421   1_455  A
C124        C725   1.414       .  A
C124        C230   1.483       .  S
C125        C126   1.407       .  A
C125        C724   1.413   1_545  A
C125        C213   1.487       .  S
C126       C1321   1.409   1_455  A
C126        C217   1.480       .  S
C127        C212   1.444       .  S
C127        C128   1.405       .  A
C127        C132   1.401       .  A
C128        C129   1.405       .  A
C128        H133   1.084       .  S
C129        C287   1.444       .  S
C129        C130   1.400       .  A
C130        C131   1.408       .  A
C130        H134   1.082       .  S
C131        C132   1.401       .  A
C131        C214   1.485       .  S
C132        H135   1.085       .  S
C136        C282   1.436       .  S
C136        C137   1.399       .  A
C136        C141   1.402       .  A
C137        C138   1.398       .  A
C137        H142   1.085       .  S
C138        C139   1.410       .  A
C138        C218   1.483       .  S
C139        C140   1.402       .  A
C139        H143   1.083       .  S
C140        C209   1.442       .  S
C140        C141   1.402       .  A
C141        H144   1.084       .  S
C145        C207   1.446       .  S
C145        C146   1.403       .  A
C145        C150   1.406       .  A
C146        C147   1.408       .  A
C146        H151   1.082       .  S
C147        C148   1.399       .  A
C147        C226   1.483       .  S
C148        C149   1.398       .  A
C148        H152   1.085       .  S
C149        C292   1.442       .  S
C149        C150   1.405       .  A
C150        H153   1.084       .  S
C154        C283   1.436       .  S
C154        C155   1.398       .  A
C154        C159   1.401       .  A
C155        C156   1.399       .  A
C155        H160   1.085       .  S
C156        C157   1.408       .  A
C156        C222   1.481       .  S
C157        C158   1.403       .  A
C157        H161   1.083       .  S
C158        C206   1.441       .  S
C158        C159   1.402       .  A
C159        H162   1.084       .  S
O163       Ni171   1.923       .  S
O163        C173   1.281       .  A
O164       Ni171   1.921       .  S
O164        C774   1.281       .  A
O165       Ni171   1.919       .  S
O165        C175   1.279       .  A
O166       Ni171   1.918       .  S
O166        C776   1.280       .  A
O167       Ni172   1.924       .  S
O167        C176   1.280       .  A
O168       Ni172   1.921   1_565  S
O168        C775   1.281       .  A
O169       Ni172   1.922       .  S
O169        C174   1.280       .  A
O170       Ni172   1.922   1_565  S
O170        C773   1.281       .  A
Ni171      Ni772   2.393       .  S
Ni172      Ni771   2.393   1_545  S
C173        O770   1.281       .  A
C173        C208   1.441       .  S
C174        O764   1.281       .  A
C174        C243   1.439       .  S
C175        O768   1.281       .  A
C175        C248   1.438       .  S
C176        O766   1.280   1_545  A
C176        C211   1.439       .  S
O177       Ni185   1.916   1_554  S
O177        C787   1.280       .  A
O178       Ni485   1.918       .  S
O178        C188   1.280       .  A
O179       Ni485   1.915       .  S
O179        C789   1.279       .  A
O180       Ni185   1.913   1_554  S
O180        C190   1.278       .  A
O181       Ni186   1.916   1_554  S
O181        C790   1.280   1_545  A
O182       Ni486   1.918       .  S
O182        C189   1.280       .  A
O183       Ni486   1.914       .  S
O183        C788   1.279   1_545  A
O184       Ni186   1.913   1_554  S
O184        C187   1.278       .  A
Ni185       O478   1.918       .  S
Ni185       O479   1.915       .  S
Ni185      Ni786   2.395       .  S
Ni186       O482   1.919       .  S
Ni186       O483   1.914       .  S
Ni186      Ni785   2.395   1_545  S
C187        O777   1.280   1_545  A
C187        C275   1.430       .  S
C188        O783   1.279       .  A
C188        C234   1.433       .  S
C189        O779   1.279   1_545  A
C189        C240   1.434       .  S
C190        O781   1.280       .  A
C190        C269   1.431       .  S
O191       Ni199   1.919       .  S
O191        C201   1.280       .  A
O192       Ni199   1.920       .  S
O192        C202   1.280       .  A
O193       Ni199   1.920       .  S
O193        C203   1.280       .  A
O194       Ni199   1.919       .  S
O194        C204   1.280       .  A
O195       Ni200   1.915       .  S
O195        C204   1.280       .  A
O196       Ni200   1.918       .  S
O196        C203   1.280       .  A
O197       Ni200   1.917       .  S
O197        C202   1.280       .  A
O198       Ni200   1.916       .  S
O198        C201   1.279       .  A
Ni199      Ni200   2.394       .  S
C201        C245   1.434       .  S
C202        C205   1.435       .  S
C203        C210   1.437       .  S
C204        C242   1.434       .  S
C205        C206   1.206       .  T
C207        C208   1.210       .  T
C209        C210   1.207       .  T
C211        C212   1.208       .  T
C213        C214   1.343       .  D
C213        H215   1.083       .  S
C214        H216   1.087       .  S
C217        C218   1.339       .  D
C217        H219   1.084       .  S
C218        H220   1.087       .  S
C221        C222   1.341       .  D
C221        H223   1.085       .  S
C222        H224   1.087       .  S
C225        C226   1.341       .  D
C225        H227   1.084       .  S
C226        H228   1.087       .  S
C229        C230   1.340       .  D
C229        H231   1.087       .  S
C230        H232   1.085       .  S
C233        C234   1.205       .  T
C235        C236   1.337       .  D
C235        H237   1.087       .  S
C236        H238   1.085       .  S
C239        C240   1.205       .  T
C241        C242   1.205       .  T
C243        C244   1.208       .  T
C245        C246   1.205       .  T
C247        C248   1.208       .  T
C249        C250   1.342       .  D
C249        H251   1.083       .  S
C250        H252   1.087       .  S
C253        C254   1.341       .  D
C253        H255   1.084       .  S
C254        H256   1.087       .  S
C257        C258   1.345       .  D
C257        H259   1.084       .  S
C258        H260   1.087       .  S
C261        C262   1.344       .  D
C261        H263   1.084       .  S
C262        H264   1.087       .  S
C265        C266   1.344       .  D
C265        H267   1.084       .  S
C266        H268   1.087       .  S
C269        C270   1.203       .  T
C271        C272   1.343       .  D
C271        H273   1.087       .  S
C272        H274   1.085       .  S
C275        C276   1.203       .  T
C277        C278   1.205       .  T
C279        C280   1.204       .  T
C281        C282   1.204       .  T
C283        C284   1.204       .  T
C285        C286   1.210       .  T
C287        C288   1.209       .  T
C289        C290   1.209       .  T
C291        C292   1.207       .  T
C293        C294   1.203       .  T
C295        C296   1.201       .  T
C297        C298   1.201       .  T
C299        C300   1.204       .  T
O301       Ni309   1.912       .  S
O301        C311   1.278       .  A
O302       Ni309   1.911       .  S
O302       C1512   1.279   1_455  A
O303       Ni309   1.919       .  S
O303        C313   1.280       .  A
O304       Ni309   1.915       .  S
O304       C1514   1.280   1_455  A
O305       Ni310   1.911       .  S
O305        C314   1.277       .  A
O306       Ni310   1.911       .  S
O306       C1513   1.279       .  A
O307       Ni310   1.917       .  S
O307        C312   1.280       .  A
O308       Ni310   1.914       .  S
O308       C1511   1.280       .  A
Ni309     Ni1510   2.396   1_455  S
Ni310     Ni1509   2.397       .  S
C311       O1508   1.280   1_455  A
C311        C598   1.428       .  S
C312       O1502   1.278       .  A
C312        C594   1.429       .  S
C313       O1506   1.279       .  A
C313        C600   1.432       .  S
C314       O1504   1.280       .  A
C314        C595   1.427       .  S
O315        C325   1.280       .  A
O316       Ni323   1.921   1_556  S
O316        C326   1.280       .  A
O317       Ni323   1.924   1_556  S
O317        C327   1.282       .  A
O318        C328   1.282       .  A
O319        C328   1.280       .  A
O320       Ni324   1.919   1_556  S
O320        C327   1.279       .  A
O321       Ni324   1.921   1_556  S
O321        C326   1.281       .  A
O322        C325   1.281       .  A
Ni323      Ni324   2.392       .  S
C325        C585   1.441       .  S
C326        C591   1.439       .  S
C327        C588   1.439       .  S
C328        C590   1.441       .  S
O329       Ni337   1.913   1_556  S
O329        C339   1.278       .  A
O330       C1540   1.279       .  A
O331        C341   1.280       .  A
O332       Ni337   1.916   1_556  S
O332       C1542   1.280       .  A
O333       Ni338   1.915   1_556  S
O333        C342   1.278       .  A
O334       C1541   1.279   1_455  A
O335        C340   1.280       .  A
O336       Ni338   1.916   1_556  S
O336       C1539   1.280   1_455  A
Ni337     Ni1538   2.395       .  S
Ni338     Ni1537   2.395   1_455  S
C339       O1536   1.280       .  A
C339        C584   1.430       .  S
C340       O1530   1.279   1_455  A
C340        C579   1.431       .  S
C341       O1534   1.279       .  A
C341        C577   1.434       .  S
C342       O1532   1.280       .  A
C342        C581   1.431       .  S
C343        C576   1.435       .  S
C343        C344   1.399       .  A
C343        C348   1.399       .  A
C344        C345   1.398       .  A
C344        H349   1.085       .  S
C345        C593   1.435       .  S
C345        C346   1.401       .  A
C346        C347   1.402       .  A
C346        H350   1.085       .  S
C347        C348   1.407       .  A
C347        C571   1.482       .  S
C348        H351   1.083       .  S
C352        C599   1.437       .  S
C352        C353   1.399       .  A
C352        C357   1.401       .  A
C353        C354   1.400       .  A
C353        H358   1.084       .  S
C354        C570   1.436       .  S
C354        C355   1.399       .  A
C355        C356   1.407       .  A
C355        H359   1.082       .  S
C356        C357   1.402       .  A
C356        C566   1.483       .  S
C357        H360   1.085       .  S
C361        C962   1.417   1_545  A
C361       C1566   1.415       .  A
C361        C572   1.484       .  S
C362        C961   1.416       .  A
C362        C363   1.413       .  A
C362        C561   1.488       .  S
C363       C1564   1.412       .  A
C363        C557   1.486       .  S
C364       C1563   1.413   1_455  A
C364        C965   1.411       .  A
C364        C565   1.483       .  S
C365        C964   1.410   1_545  A
C365        C366   1.408       .  A
C365        C549   1.486       .  S
C366       C1561   1.415   1_455  A
C366        C553   1.484       .  S
C367        C547   1.441       .  S
C367        C368   1.404       .  A
C367        C372   1.397       .  A
C368        C369   1.406       .  A
C368        H373   1.084       .  S
C369        C589   1.446       .  S
C369        C370   1.405       .  A
C370        C371   1.408       .  A
C370        H374   1.083       .  S
C371        C372   1.399       .  A
C371        C562   1.481       .  S
C372        H375   1.085       .  S
C376        C580   1.437       .  S
C376        C377   1.400       .  A
C376        C381   1.400       .  A
C377        C378   1.401       .  A
C377        H382   1.084       .  S
C378        C546   1.440       .  S
C378        C379   1.401       .  A
C379        C380   1.410       .  A
C379        H383   1.083       .  S
C380        C381   1.400       .  A
C380        C554   1.485       .  S
C381        H384   1.085       .  S
C385        C544   1.443       .  S
C385        C386   1.405       .  A
C385        C390   1.399       .  A
C386        C387   1.405       .  A
C386        H391   1.084       .  S
C387        C586   1.446       .  S
C387        C388   1.402       .  A
C388        C389   1.409       .  A
C388        H392   1.082       .  S
C389        C390   1.400       .  A
C389        C550   1.486       .  S
C390        H393   1.085       .  S
C394        C578   1.439       .  S
C394        C395   1.402       .  A
C394        C399   1.402       .  A
C395        C396   1.407       .  A
C395        H400   1.082       .  S
C396        C397   1.401       .  A
C396        C558   1.482       .  S
C397        C398   1.398       .  A
C397        H401   1.085       .  S
C398        C541   1.438       .  S
C398        C399   1.401       .  A
C399        H402   1.084       .  S
C403        C539   1.440       .  S
C403        C404   1.400       .  A
C403        C408   1.403       .  A
C404        C405   1.399       .  A
C404        H409   1.084       .  S
C405        C596   1.432       .  S
C405        C406   1.397       .  A
C406        C407   1.397       .  A
C406        H410   1.085       .  S
C407        C408   1.410       .  A
C407        C535   1.482       .  S
C408        H411   1.083       .  S
C412        C597   1.433       .  S
C412        C413   1.398       .  A
C412        C417   1.397       .  A
C413        C414   1.400       .  A
C413        H418   1.085       .  S
C414        C533   1.439       .  S
C414        C415   1.403       .  A
C415        C416   1.409       .  A
C415        H419   1.083       .  S
C416        C417   1.399       .  A
C416        C529   1.481       .  S
C417        H420   1.085       .  S
C421       C1022   1.406   1_545  A
C421       C1626   1.407       .  A
C421        C536   1.479       .  S
C422       C1021   1.406       .  A
C422        C423   1.413       .  A
C422        C525   1.486       .  S
C423       C1624   1.420       .  A
C423        C521   1.485       .  S
C424       C1623   1.420   1_455  A
C424       C1025   1.414       .  A
C424        C530   1.485       .  S
C425       C1024   1.413   1_545  A
C425        C426   1.405       .  A
C425        C513   1.486       .  S
C426       C1621   1.406   1_455  A
C426        C517   1.480       .  S
C427        C512   1.443       .  S
C427        C428   1.405       .  A
C427        C432   1.400       .  A
C428        C429   1.405       .  A
C428        H433   1.084       .  S
C429        C587   1.444       .  S
C429        C430   1.401       .  A
C430        C431   1.408       .  A
C430        H434   1.082       .  S
C431        C432   1.401       .  A
C431        C514   1.485       .  S
C432        H435   1.085       .  S
C436        C582   1.435       .  S
C436        C437   1.398       .  A
C436        C441   1.401       .  A
C437        C438   1.398       .  A
C437        H442   1.085       .  S
C438        C439   1.409       .  A
C438        C518   1.482       .  S
C439        C440   1.402       .  A
C439        H443   1.083       .  S
C440        C509   1.441       .  S
C440        C441   1.402       .  A
C441        H444   1.084       .  S
C445        C507   1.446       .  S
C445        C446   1.402       .  A
C445        C450   1.406       .  A
C446        C447   1.408       .  A
C446        H451   1.082       .  S
C447        C448   1.400       .  A
C447        C526   1.484       .  S
C448        C449   1.399       .  A
C448        H452   1.085       .  S
C449        C592   1.443       .  S
C449        C450   1.405       .  A
C450        H453   1.084       .  S
C454        C583   1.435       .  S
C454        C455   1.397       .  A
C454        C459   1.400       .  A
C455        C456   1.398       .  A
C455        H460   1.085       .  S
C456        C457   1.409       .  A
C456        C522   1.481       .  S
C457        C458   1.403       .  A
C457        H461   1.083       .  S
C458        C506   1.441       .  S
C458        C459   1.402       .  A
C459        H462   1.084       .  S
O463       Ni471   1.923       .  S
O463        C473   1.280       .  A
O464       Ni471   1.921       .  S
O464       C1074   1.281       .  A
O465       Ni471   1.917       .  S
O465        C475   1.279       .  A
O466       Ni471   1.916       .  S
O466       C1076   1.280       .  A
O467       Ni472   1.923       .  S
O467        C476   1.280       .  A
O468       Ni472   1.921   1_565  S
O468       C1075   1.281       .  A
O469       Ni472   1.922       .  S
O469        C474   1.280       .  A
O470       Ni472   1.922   1_565  S
O470       C1073   1.281       .  A
Ni471     Ni1072   2.393       .  S
Ni472     Ni1071   2.393   1_545  S
C473       O1070   1.281       .  A
C473        C508   1.441       .  S
C474       O1064   1.281       .  A
C474        C543   1.439       .  S
C475       O1068   1.281       .  A
C475        C548   1.436       .  S
C476       O1066   1.280       .  A
C476        C511   1.438       .  S
O477       Ni485   1.916       .  S
O477       C1087   1.280       .  A
O478        C488   1.280       .  A
O479       C1089   1.279       .  A
O480       Ni485   1.913       .  S
O480        C490   1.278       .  A
O481       Ni486   1.915       .  S
O481       C1090   1.280   1_545  A
O482        C489   1.280       .  A
O483       C1088   1.279   1_545  A
O484       Ni486   1.913       .  S
O484        C487   1.279       .  A
Ni485     Ni1086   2.395       .  S
Ni486     Ni1085   2.395   1_545  S
C487       O1077   1.279   1_545  A
C487        C575   1.430       .  S
C488       O1083   1.279       .  A
C488        C534   1.433       .  S
C489       O1079   1.279   1_545  A
C489        C540   1.434       .  S
C490       O1081   1.280       .  A
C490        C569   1.431       .  S
O491       Ni499   1.920       .  S
O491        C501   1.280       .  A
O492       Ni499   1.920       .  S
O492        C502   1.280       .  A
O493       Ni499   1.918       .  S
O493        C503   1.280       .  A
O494       Ni499   1.917       .  S
O494        C504   1.279       .  A
O495       Ni500   1.916       .  S
O495        C504   1.280       .  A
O496       Ni500   1.919       .  S
O496        C503   1.280       .  A
O497       Ni500   1.916       .  S
O497        C502   1.279       .  A
O498       Ni500   1.916       .  S
O498        C501   1.279       .  A
Ni499      Ni500   2.394       .  S
C501        C545   1.435       .  S
C502        C505   1.435       .  S
C503        C510   1.436       .  S
C504        C542   1.433       .  S
C505        C506   1.206       .  T
C507        C508   1.210       .  T
C509        C510   1.207       .  T
C511        C512   1.208       .  T
C513        C514   1.343       .  D
C513        H515   1.083       .  S
C514        H516   1.087       .  S
C517        C518   1.338       .  D
C517        H519   1.085       .  S
C518        H520   1.087       .  S
C521        C522   1.340       .  D
C521        H523   1.085       .  S
C522        H524   1.087       .  S
C525        C526   1.342       .  D
C525        H527   1.084       .  S
C526        H528   1.087       .  S
C529        C530   1.340       .  D
C529        H531   1.087       .  S
C530        H532   1.085       .  S
C533        C534   1.205       .  T
C535        C536   1.337       .  D
C535        H537   1.087       .  S
C536        H538   1.085       .  S
C539        C540   1.206       .  T
C541        C542   1.205       .  T
C543        C544   1.208       .  T
C545        C546   1.206       .  T
C547        C548   1.207       .  T
C549        C550   1.342       .  D
C549        H551   1.083       .  S
C550        H552   1.087       .  S
C553        C554   1.341       .  D
C553        H555   1.084       .  S
C554        H556   1.087       .  S
C557        C558   1.344       .  D
C557        H559   1.084       .  S
C558        H560   1.088       .  S
C561        C562   1.342       .  D
C561        H563   1.085       .  S
C562        H564   1.088       .  S
C565        C566   1.344       .  D
C565        H567   1.083       .  S
C566        H568   1.087       .  S
C569        C570   1.203       .  T
C571        C572   1.343       .  D
C571        H573   1.087       .  S
C572        H574   1.084       .  S
C575        C576   1.203       .  T
C577        C578   1.205       .  T
C579        C580   1.204       .  T
C581        C582   1.203       .  T
C583        C584   1.203       .  T
C585        C586   1.209       .  T
C587        C588   1.208       .  T
C589        C590   1.209       .  T
C591        C592   1.208       .  T
C593        C594   1.203       .  T
C595        C596   1.201       .  T
C597        C598   1.202       .  T
C599        C600   1.204       .  T
O601       Ni609   1.910       .  S
O601        C611   1.277       .  A
O602       Ni609   1.909       .  S
O602       C1812   1.278   1_455  A
O603       Ni609   1.919       .  S
O603        C613   1.280       .  A
O604       Ni609   1.914   1_655  S
O604       C1814   1.280       .  A
O605       Ni610   1.910       .  S
O605        C614   1.277       .  A
O606       Ni610   1.910       .  S
O606       C1813   1.278       .  A
O607       Ni610   1.917       .  S
O607        C612   1.280       .  A
O608       Ni610   1.914       .  S
O608       C1811   1.280       .  A
Ni609     Ni1810   2.396   1_455  S
Ni610     Ni1809   2.396       .  S
C611       O1808   1.280   1_455  A
C611        C898   1.427       .  S
C612       O1802   1.278       .  A
C612        C894   1.429       .  S
C613       O1806   1.279       .  A
C613        C900   1.431       .  S
C614       O1804   1.280       .  A
C614        C895   1.427       .  S
O615       Ni923   1.921       .  S
O615        C625   1.281       .  A
O616       Ni623   1.921       .  S
O616        C626   1.280       .  A
O617       Ni623   1.923       .  S
O617        C627   1.281       .  A
O618       Ni923   1.925       .  S
O618        C628   1.281       .  A
O619       Ni924   1.919       .  S
O619        C628   1.280       .  A
O620       Ni624   1.918       .  S
O620        C627   1.279       .  A
O621       Ni624   1.921       .  S
O621        C626   1.281       .  A
O622       Ni924   1.925       .  S
O622        C625   1.281       .  A
Ni623       O915   1.922       .  S
Ni623       O918   1.925       .  S
Ni623      Ni624   2.392       .  S
Ni624       O919   1.919       .  S
Ni624       O922   1.924       .  S
C625        C885   1.441       .  S
C626        C891   1.439       .  S
C627        C888   1.439       .  S
C628        C890   1.441       .  S
O629       Ni637   1.913       .  S
O629        C639   1.278       .  A
O630       Ni937   1.909       .  S
O630       C1840   1.278       .  A
O631       Ni937   1.919       .  S
O631        C641   1.280       .  A
O632       Ni637   1.915       .  S
O632       C1842   1.280       .  A
O633       Ni638   1.915       .  S
O633        C642   1.278       .  A
O634       Ni938   1.916       .  S
O634       C1841   1.280   1_455  A
O635       Ni938   1.919       .  S
O635        C640   1.280       .  A
O636       Ni638   1.916       .  S
O636       C1839   1.280   1_455  A
Ni637       O930   1.910       .  S
Ni637       O931   1.918       .  S
Ni637     Ni1838   2.395       .  S
Ni638       O934   1.915       .  S
Ni638       O935   1.918       .  S
Ni638     Ni1837   2.395   1_455  S
C639       O1836   1.280       .  A
C639        C884   1.430       .  S
C640       O1830   1.279   1_455  A
C640        C879   1.431       .  S
C641       O1834   1.279       .  A
C641        C877   1.434       .  S
C642       O1832   1.280       .  A
C642        C881   1.432       .  S
C643        C876   1.435       .  S
C643        C644   1.399       .  A
C643        C648   1.399       .  A
C644        C645   1.398       .  A
C644        H649   1.085       .  S
C645        C893   1.435       .  S
C645        C646   1.401       .  A
C646        C647   1.402       .  A
C646        H650   1.085       .  S
C647        C648   1.407       .  A
C647        C871   1.482       .  S
C648        H651   1.083       .  S
C652        C899   1.437       .  S
C652        C653   1.399       .  A
C652        C657   1.400       .  A
C653        C654   1.400       .  A
C653        H658   1.084       .  S
C654        C870   1.436       .  S
C654        C655   1.400       .  A
C655        C656   1.407       .  A
C655        H659   1.082       .  S
C656        C657   1.402       .  A
C656        C866   1.483       .  S
C657        H660   1.085       .  S
C661       C1866   1.414       .  A
C661        C872   1.484       .  S
C662        C663   1.415       .  A
C662        C861   1.489       .  S
C663       C1864   1.413       .  A
C663        C857   1.487       .  S
C664       C1863   1.413   1_455  A
C664        C865   1.484       .  S
C665        C666   1.408       .  A
C665        C849   1.486       .  S
C666       C1861   1.415   1_455  A
C666        C853   1.483       .  S
C667        C847   1.442       .  S
C667        C668   1.404       .  A
C667        C672   1.398       .  A
C668        C669   1.406       .  A
C668        H673   1.084       .  S
C669        C889   1.446       .  S
C669        C670   1.404       .  A
C670        C671   1.408       .  A
C670        H674   1.083       .  S
C671        C672   1.400       .  A
C671        C862   1.483       .  S
C672        H675   1.085       .  S
C676        C880   1.436       .  S
C676        C677   1.400       .  A
C676        C681   1.400       .  A
C677        C678   1.401       .  A
C677        H682   1.084       .  S
C678        C846   1.440       .  S
C678        C679   1.401       .  A
C679        C680   1.410       .  A
C679        H683   1.083       .  S
C680        C681   1.400       .  A
C680        C854   1.484       .  S
C681        H684   1.085       .  S
C685        C844   1.443       .  S
C685        C686   1.405       .  A
C685        C690   1.399       .  A
C686        C687   1.405       .  A
C686        H691   1.084       .  S
C687        C886   1.446       .  S
C687        C688   1.402       .  A
C688        C689   1.409       .  A
C688        H692   1.081       .  S
C689        C690   1.400       .  A
C689        C850   1.486       .  S
C690        H693   1.085       .  S
C694        C878   1.439       .  S
C694        C695   1.402       .  A
C694        C699   1.401       .  A
C695        C696   1.407       .  A
C695        H700   1.082       .  S
C696        C697   1.402       .  A
C696        C858   1.483       .  S
C697        C698   1.399       .  A
C697        H701   1.085       .  S
C698        C841   1.438       .  S
C698        C699   1.401       .  A
C699        H702   1.084       .  S
C703        C839   1.440       .  S
C703        C704   1.401       .  A
C703        C708   1.403       .  A
C704        C705   1.400       .  A
C704        H709   1.084       .  S
C705        C896   1.432       .  S
C705        C706   1.397       .  A
C706        C707   1.396       .  A
C706        H710   1.085       .  S
C707        C708   1.409       .  A
C707        C835   1.478       .  S
C708        H711   1.084       .  S
C712        C897   1.432       .  S
C712        C713   1.398       .  A
C712        C717   1.397       .  A
C713        C714   1.400       .  A
C713        H718   1.085       .  S
C714        C833   1.438       .  S
C714        C715   1.403       .  A
C715        C716   1.409       .  A
C715        H719   1.083       .  S
C716        C717   1.398       .  A
C716        C829   1.480       .  S
C717        H720   1.085       .  S
C721       C1926   1.407       .  A
C721        C836   1.477       .  S
C722        C723   1.413       .  A
C722        C825   1.486       .  S
C723       C1924   1.421       .  A
C723        C821   1.484       .  S
C724       C1923   1.420   1_455  A
C724        C830   1.483       .  S
C725        C726   1.407       .  A
C725        C813   1.485       .  S
C726       C1921   1.405   1_455  A
C726        C817   1.477       .  S
C727        C812   1.443       .  S
C727        C728   1.405       .  A
C727        C732   1.400       .  A
C728        C729   1.405       .  A
C728        H733   1.084       .  S
C729        C887   1.443       .  S
C729        C730   1.400       .  A
C730        C731   1.407       .  A
C730        H734   1.082       .  S
C731        C732   1.401       .  A
C731        C814   1.483       .  S
C732        H735   1.085       .  S
C736        C882   1.436       .  S
C736        C737   1.399       .  A
C736        C741   1.402       .  A
C737        C738   1.396       .  A
C737        H742   1.085       .  S
C738        C739   1.405       .  A
C738        C818   1.474       .  S
C739        C740   1.402       .  A
C739        H743   1.085       .  S
C740        C809   1.441       .  S
C740        C741   1.403       .  A
C741        H744   1.084       .  S
C745        C807   1.446       .  S
C745        C746   1.402       .  A
C745        C750   1.406       .  A
C746        C747   1.409       .  A
C746        H751   1.082       .  S
C747        C748   1.400       .  A
C747        C826   1.484       .  S
C748        C749   1.399       .  A
C748        H752   1.085       .  S
C749        C892   1.443       .  S
C749        C750   1.405       .  A
C750        H753   1.084       .  S
C754        C883   1.435       .  S
C754        C755   1.397       .  A
C754        C759   1.400       .  A
C755        C756   1.398       .  A
C755        H760   1.085       .  S
C756        C757   1.409       .  A
C756        C822   1.481       .  S
C757        C758   1.403       .  A
C757        H761   1.083       .  S
C758        C806   1.441       .  S
C758        C759   1.402       .  A
C759        H762   1.084       .  S
O763       Ni771   1.923       .  S
O763        C773   1.280       .  A
O764       Ni771   1.921   1_545  S
O765       Ni771   1.919       .  S
O765        C775   1.279       .  A
O766       Ni771   1.918       .  S
O767       Ni772   1.924       .  S
O767        C776   1.281       .  A
O768       Ni772   1.921       .  S
O769       Ni772   1.921       .  S
O769        C774   1.280       .  A
O770       Ni772   1.922       .  S
C773        C808   1.441       .  S
C774        C843   1.439       .  S
C775        C848   1.438       .  S
C776        C811   1.439       .  S
O777       Ni785   1.916   1_554  S
O778      Ni1085   1.917       .  S
O778        C788   1.280       .  A
O779      Ni1085   1.915       .  S
O780       Ni785   1.914   1_554  S
O780        C790   1.278       .  A
O781       Ni786   1.917   1_554  S
O782      Ni1086   1.920       .  S
O782        C789   1.280       .  A
O783      Ni1086   1.915       .  S
O784       Ni786   1.913   1_554  S
O784        C787   1.278       .  A
Ni785      O1078   1.918       .  S
Ni785      O1079   1.915       .  S
Ni786      O1082   1.920       .  S
Ni786      O1083   1.915       .  S
C787        C875   1.430       .  S
C788        C834   1.432       .  S
C789        C840   1.435       .  S
C790        C869   1.431       .  S
O791       Ni799   1.920       .  S
O791        C801   1.280       .  A
O792       Ni799   1.921       .  S
O792        C802   1.280       .  A
O793       Ni799   1.918       .  S
O793        C803   1.280       .  A
O794       Ni799   1.917       .  S
O794        C804   1.279       .  A
O795       Ni800   1.916       .  S
O795        C804   1.280       .  A
O796       Ni800   1.919       .  S
O796        C803   1.280       .  A
O797       Ni800   1.916       .  S
O797        C802   1.279       .  A
O798       Ni800   1.916       .  S
O798        C801   1.279       .  A
Ni799      Ni800   2.394       .  S
C801        C845   1.435       .  S
C802        C805   1.436       .  S
C803        C810   1.436       .  S
C804        C842   1.433       .  S
C805        C806   1.206       .  T
C807        C808   1.210       .  T
C809        C810   1.206       .  T
C811        C812   1.208       .  T
C813        C814   1.343       .  D
C813        H815   1.083       .  S
C814        H816   1.087       .  S
C817        C818   1.337       .  D
C817        H819   1.087       .  S
C818        H820   1.087       .  S
C821        C822   1.340       .  D
C821        H823   1.085       .  S
C822        H824   1.087       .  S
C825        C826   1.342       .  D
C825        H827   1.084       .  S
C826        H828   1.087       .  S
C829        C830   1.339       .  D
C829        H831   1.087       .  S
C830        H832   1.085       .  S
C833        C834   1.204       .  T
C835        C836   1.336       .  D
C835        H837   1.087       .  S
C836        H838   1.086       .  S
C839        C840   1.206       .  T
C841        C842   1.205       .  T
C843        C844   1.208       .  T
C845        C846   1.206       .  T
C847        C848   1.208       .  T
C849        C850   1.342       .  D
C849        H851   1.083       .  S
C850        H852   1.087       .  S
C853        C854   1.340       .  D
C853        H855   1.084       .  S
C854        H856   1.087       .  S
C857        C858   1.344       .  D
C857        H859   1.084       .  S
C858        H860   1.087       .  S
C861        C862   1.344       .  D
C861        H863   1.084       .  S
C862        H864   1.087       .  S
C865        C866   1.344       .  D
C865        H867   1.083       .  S
C866        H868   1.087       .  S
C869        C870   1.203       .  T
C871        C872   1.343       .  D
C871        H873   1.087       .  S
C872        H874   1.084       .  S
C875        C876   1.203       .  T
C877        C878   1.205       .  T
C879        C880   1.204       .  T
C881        C882   1.204       .  T
C883        C884   1.203       .  T
C885        C886   1.210       .  T
C887        C888   1.208       .  T
C889        C890   1.209       .  T
C891        C892   1.208       .  T
C893        C894   1.203       .  T
C895        C896   1.201       .  T
C897        C898   1.201       .  T
C899        C900   1.204       .  T
O901       Ni909   1.911       .  S
O901        C911   1.278       .  A
O902       Ni909   1.910       .  S
O902       C2112   1.278   1_455  A
O903       Ni909   1.917       .  S
O903        C913   1.279       .  A
O904       Ni909   1.913       .  S
O904       C2114   1.280   1_455  A
O905       Ni910   1.911       .  S
O905        C914   1.278       .  A
O906       Ni910   1.912       .  S
O906       C2113   1.279       .  A
O907       Ni910   1.916       .  S
O907        C912   1.279       .  A
O908       Ni910   1.912       .  S
O908       C2111   1.279       .  A
Ni909     Ni2110   2.397   1_455  S
Ni910     Ni2109   2.396       .  S
C911       O2108   1.280   1_455  A
C911       C1198   1.427       .  S
C912       O2102   1.279       .  A
C912       C1194   1.429       .  S
C913       O2106   1.279       .  A
C913       C1200   1.430       .  S
C914       O2104   1.280       .  A
C914       C1195   1.427       .  S
O915        C925   1.281       .  A
O916       Ni923   1.920   1_556  S
O916        C926   1.279       .  A
O917       Ni923   1.923   1_556  S
O917        C927   1.281       .  A
O918        C928   1.281       .  A
O919        C928   1.280       .  A
O920       Ni924   1.918   1_556  S
O920        C927   1.279       .  A
O921       Ni924   1.921   1_556  S
O921        C926   1.281       .  A
O922        C925   1.281       .  A
Ni923      Ni924   2.393       .  S
C925       C1185   1.442       .  S
C926       C1191   1.438       .  S
C927       C1188   1.438       .  S
C928       C1190   1.440       .  S
O929       Ni937   1.911   1_556  S
O929        C939   1.277       .  A
O930       C2140   1.279       .  A
O931        C941   1.280       .  A
O932       Ni937   1.916   1_556  S
O932       C2142   1.280       .  A
O933       Ni938   1.917   1_556  S
O933        C942   1.279       .  A
O934       C2141   1.279   1_455  A
O935        C940   1.280       .  A
O936       Ni938   1.916   1_556  S
O936       C2139   1.280   1_455  A
Ni937     Ni2138   2.395       .  S
Ni938     Ni2137   2.395   1_455  S
C939       O2136   1.280       .  A
C939       C1184   1.429       .  S
C940       O2130   1.279   1_455  A
C940       C1179   1.430       .  S
C941       O2134   1.280       .  A
C941       C1177   1.434       .  S
C942       O2132   1.280       .  A
C942       C1181   1.432       .  S
C943       C1176   1.436       .  S
C943        C944   1.399       .  A
C943        C948   1.400       .  A
C944        C945   1.399       .  A
C944        H949   1.085       .  S
C945       C1193   1.435       .  S
C945        C946   1.400       .  A
C946        C947   1.401       .  A
C946        H950   1.085       .  S
C947        C948   1.407       .  A
C947       C1171   1.482       .  S
C948        H951   1.083       .  S
C952       C1199   1.436       .  S
C952        C953   1.399       .  A
C952        C957   1.400       .  A
C953        C954   1.400       .  A
C953        H958   1.084       .  S
C954       C1170   1.435       .  S
C954        C955   1.400       .  A
C955        C956   1.407       .  A
C955        H959   1.082       .  S
C956        C957   1.402       .  A
C956       C1166   1.482       .  S
C957        H960   1.085       .  S
C961       C2166   1.414       .  A
C961       C1172   1.484       .  S
C962        C963   1.415       .  A
C962       C1161   1.489       .  S
C963       C2164   1.413       .  A
C963       C1157   1.488       .  S
C964       C2163   1.413   1_455  A
C964       C1165   1.483       .  S
C965        C966   1.408       .  A
C965       C1149   1.486       .  S
C966       C2161   1.415   1_455  A
C966       C1153   1.483       .  S
C967       C1147   1.442       .  S
C967        C968   1.404       .  A
C967        C972   1.398       .  A
C968        C969   1.405       .  A
C968        H973   1.084       .  S
C969       C1189   1.445       .  S
C969        C970   1.404       .  A
C970        C971   1.408       .  A
C970        H974   1.083       .  S
C971        C972   1.400       .  A
C971       C1162   1.483       .  S
C972        H975   1.085       .  S
C976       C1180   1.436       .  S
C976        C977   1.399       .  A
C976        C981   1.400       .  A
C977        C978   1.401       .  A
C977        H982   1.084       .  S
C978       C1146   1.440       .  S
C978        C979   1.401       .  A
C979        C980   1.410       .  A
C979        H983   1.083       .  S
C980        C981   1.400       .  A
C980       C1154   1.484       .  S
C981        H984   1.085       .  S
C985       C1144   1.444       .  S
C985        C986   1.406       .  A
C985        C990   1.400       .  A
C986        C987   1.406       .  A
C986        H991   1.084       .  S
C987       C1186   1.447       .  S
C987        C988   1.402       .  A
C988        C989   1.409       .  A
C988        H992   1.082       .  S
C989        C990   1.401       .  A
C989       C1150   1.487       .  S
C990        H993   1.085       .  S
C994       C1178   1.439       .  S
C994        C995   1.402       .  A
C994        C999   1.402       .  A
C995        C996   1.407       .  A
C995       H1000   1.082       .  S
C996        C997   1.402       .  A
C996       C1158   1.484       .  S
C997        C998   1.400       .  A
C997       H1001   1.085       .  S
C998       C1141   1.439       .  S
C998        C999   1.401       .  A
C999       H1002   1.084       .  S
C1003      C1139   1.440       .  S
C1003      C1004   1.401       .  A
C1003      C1008   1.403       .  A
C1004      C1005   1.399       .  A
C1004      H1009   1.084       .  S
C1005      C1196   1.432       .  S
C1005      C1006   1.397       .  A
C1006      C1007   1.396       .  A
C1006      H1010   1.085       .  S
C1007      C1008   1.409       .  A
C1007      C1135   1.478       .  S
C1008      H1011   1.084       .  S
C1012      C1197   1.432       .  S
C1012      C1013   1.398       .  A
C1012      C1017   1.397       .  A
C1013      C1014   1.400       .  A
C1013      H1018   1.085       .  S
C1014      C1133   1.438       .  S
C1014      C1015   1.403       .  A
C1015      C1016   1.409       .  A
C1015      H1019   1.083       .  S
C1016      C1017   1.398       .  A
C1016      C1129   1.480       .  S
C1017      H1020   1.085       .  S
C1021      C2226   1.407       .  A
C1021      C1136   1.477       .  S
C1022      C1023   1.413       .  A
C1022      C1125   1.486       .  S
C1023      C2224   1.420       .  A
C1023      C1121   1.483       .  S
C1024      C2223   1.420   1_455  A
C1024      C1130   1.484       .  S
C1025      C1026   1.408       .  A
C1025      C1113   1.487       .  S
C1026      C2221   1.409   1_455  A
C1026      C1117   1.481       .  S
C1027      C1112   1.442       .  S
C1027      C1028   1.404       .  A
C1027      C1032   1.401       .  A
C1028      C1029   1.404       .  A
C1028      H1033   1.084       .  S
C1029      C1187   1.443       .  S
C1029      C1030   1.400       .  A
C1030      C1031   1.408       .  A
C1030      H1034   1.082       .  S
C1031      C1032   1.402       .  A
C1031      C1114   1.486       .  S
C1032      H1035   1.085       .  S
C1036      C1182   1.437       .  S
C1036      C1037   1.399       .  A
C1036      C1041   1.401       .  A
C1037      C1038   1.399       .  A
C1037      H1042   1.085       .  S
C1038      C1039   1.410       .  A
C1038      C1118   1.485       .  S
C1039      C1040   1.401       .  A
C1039      H1043   1.082       .  S
C1040      C1109   1.441       .  S
C1040      C1041   1.402       .  A
C1041      H1044   1.084       .  S
C1045      C1107   1.446       .  S
C1045      C1046   1.402       .  A
C1045      C1050   1.406       .  A
C1046      C1047   1.408       .  A
C1046      H1051   1.082       .  S
C1047      C1048   1.399       .  A
C1047      C1126   1.484       .  S
C1048      C1049   1.398       .  A
C1048      H1052   1.085       .  S
C1049      C1192   1.442       .  S
C1049      C1050   1.405       .  A
C1050      H1053   1.084       .  S
C1054      C1183   1.434       .  S
C1054      C1055   1.397       .  A
C1054      C1059   1.400       .  A
C1055      C1056   1.398       .  A
C1055      H1060   1.085       .  S
C1056      C1057   1.408       .  A
C1056      C1122   1.479       .  S
C1057      C1058   1.403       .  A
C1057      H1061   1.083       .  S
C1058      C1106   1.440       .  S
C1058      C1059   1.402       .  A
C1059      H1062   1.084       .  S
O1063     Ni1071   1.923       .  S
O1063      C1073   1.280       .  A
O1064     Ni1071   1.920   1_545  S
O1065     Ni1071   1.919       .  S
O1065      C1075   1.279       .  A
O1066     Ni1071   1.918   1_545  S
O1067     Ni1072   1.924       .  S
O1067      C1076   1.281       .  A
O1068     Ni1072   1.921       .  S
O1069     Ni1072   1.922       .  S
O1069      C1074   1.280       .  A
O1070     Ni1072   1.922       .  S
C1073      C1108   1.441       .  S
C1074      C1143   1.440       .  S
C1075      C1148   1.438       .  S
C1076      C1111   1.438       .  S
O1077     Ni1085   1.915       .  S
O1078      C1088   1.280       .  A
O1080     Ni1085   1.914       .  S
O1080      C1090   1.279       .  A
O1081     Ni1086   1.917       .  S
O1082      C1089   1.280       .  A
O1084     Ni1086   1.914       .  S
O1084      C1087   1.279       .  A
C1087      C1175   1.431       .  S
C1088      C1134   1.432       .  S
C1089      C1140   1.435       .  S
C1090      C1169   1.430       .  S
O1091     Ni1099   1.919       .  S
O1091      C1101   1.280       .  A
O1092     Ni1099   1.919       .  S
O1092      C1102   1.280       .  A
O1093     Ni1099   1.919       .  S
O1093      C1103   1.280       .  A
O1094     Ni1099   1.919       .  S
O1094      C1104   1.280       .  A
O1095     Ni1100   1.916       .  S
O1095      C1104   1.280       .  A
O1096     Ni1100   1.918       .  S
O1096      C1103   1.280       .  A
O1097     Ni1100   1.916       .  S
O1097      C1102   1.279       .  A
O1098     Ni1100   1.916       .  S
O1098      C1101   1.279       .  A
Ni1099    Ni1100   2.394       .  S
C1101      C1145   1.434       .  S
C1102      C1105   1.435       .  S
C1103      C1110   1.436       .  S
C1104      C1142   1.434       .  S
C1105      C1106   1.206       .  T
C1107      C1108   1.209       .  T
C1109      C1110   1.207       .  T
C1111      C1112   1.207       .  T
C1113      C1114   1.344       .  D
C1113      H1115   1.083       .  S
C1114      H1116   1.087       .  S
C1117      C1118   1.340       .  D
C1117      H1119   1.084       .  S
C1118      H1120   1.087       .  S
C1121      C1122   1.340       .  D
C1121      H1123   1.085       .  S
C1122      H1124   1.087       .  S
C1125      C1126   1.342       .  D
C1125      H1127   1.084       .  S
C1126      H1128   1.087       .  S
C1129      C1130   1.340       .  D
C1129      H1131   1.087       .  S
C1130      H1132   1.085       .  S
C1133      C1134   1.204       .  T
C1135      C1136   1.336       .  D
C1135      H1137   1.087       .  S
C1136      H1138   1.085       .  S
C1139      C1140   1.206       .  T
C1141      C1142   1.205       .  T
C1143      C1144   1.208       .  T
C1145      C1146   1.205       .  T
C1147      C1148   1.207       .  T
C1149      C1150   1.342       .  D
C1149      H1151   1.083       .  S
C1150      H1152   1.087       .  S
C1153      C1154   1.340       .  D
C1153      H1155   1.084       .  S
C1154      H1156   1.087       .  S
C1157      C1158   1.345       .  D
C1157      H1159   1.084       .  S
C1158      H1160   1.087       .  S
C1161      C1162   1.344       .  D
C1161      H1163   1.084       .  S
C1162      H1164   1.087       .  S
C1165      C1166   1.344       .  D
C1165      H1167   1.084       .  S
C1166      H1168   1.087       .  S
C1169      C1170   1.203       .  T
C1171      C1172   1.342       .  D
C1171      H1173   1.087       .  S
C1172      H1174   1.085       .  S
C1175      C1176   1.203       .  T
C1177      C1178   1.205       .  T
C1179      C1180   1.203       .  T
C1181      C1182   1.204       .  T
C1183      C1184   1.202       .  T
C1185      C1186   1.210       .  T
C1187      C1188   1.208       .  T
C1189      C1190   1.209       .  T
C1191      C1192   1.207       .  T
C1193      C1194   1.203       .  T
C1195      C1196   1.201       .  T
C1197      C1198   1.201       .  T
C1199      C1200   1.203       .  T
O1201     Ni1209   1.911       .  S
O1201      C1211   1.278       .  A
O1202     Ni1209   1.910       .  S
O1203     Ni1209   1.918       .  S
O1203      C1213   1.280       .  A
O1204     Ni1209   1.914       .  S
O1205     Ni1210   1.912       .  S
O1205      C1214   1.278       .  A
O1206     Ni1210   1.912   1_455  S
O1207     Ni1210   1.917       .  S
O1207      C1212   1.279       .  A
O1208     Ni1210   1.913       .  S
C1211      C1498   1.427       .  S
C1212      C1494   1.429       .  S
C1213      C1500   1.430       .  S
C1214      C1495   1.428       .  S
O1215     Ni1523   1.922       .  S
O1215      C1225   1.281       .  A
O1216     Ni1223   1.921       .  S
O1216      C1226   1.279       .  A
O1217     Ni1223   1.923       .  S
O1217      C1227   1.282       .  A
O1218     Ni1523   1.925       .  S
O1218      C1228   1.281       .  A
O1219     Ni1524   1.919       .  S
O1219      C1228   1.280       .  A
O1220     Ni1224   1.918       .  S
O1220      C1227   1.279       .  A
O1221     Ni1224   1.921       .  S
O1221      C1226   1.281       .  A
O1222     Ni1524   1.924       .  S
O1222      C1225   1.281       .  A
Ni1223     O1515   1.921       .  S
Ni1223     O1518   1.925       .  S
Ni1223    Ni1224   2.393       .  S
Ni1224     O1519   1.918       .  S
Ni1224     O1522   1.924       .  S
C1225      C1485   1.442       .  S
C1226      C1491   1.438       .  S
C1227      C1488   1.439       .  S
C1228      C1490   1.441       .  S
O1229     Ni1237   1.912       .  S
O1229      C1239   1.278       .  A
O1230     Ni1537   1.909   1_455  S
O1231     Ni1537   1.919       .  S
O1231      C1241   1.280       .  A
O1232     Ni1237   1.916       .  S
O1233     Ni1238   1.915       .  S
O1233      C1242   1.278       .  A
O1234     Ni1538   1.914       .  S
O1235     Ni1538   1.919       .  S
O1235      C1240   1.280       .  A
O1236     Ni1238   1.917       .  S
Ni1237     O1530   1.911       .  S
Ni1237     O1531   1.919       .  S
Ni1238     O1534   1.915       .  S
Ni1238     O1535   1.919       .  S
C1239      C1484   1.430       .  S
C1240      C1479   1.431       .  S
C1241      C1477   1.434       .  S
C1242      C1481   1.432       .  S
C1243      C1476   1.435       .  S
C1243      C1244   1.399       .  A
C1243      C1248   1.399       .  A
C1244      C1245   1.398       .  A
C1244      H1249   1.085       .  S
C1245      C1493   1.435       .  S
C1245      C1246   1.401       .  A
C1246      C1247   1.401       .  A
C1246      H1250   1.085       .  S
C1247      C1248   1.407       .  A
C1247      C1471   1.482       .  S
C1248      H1251   1.083       .  S
C1252      C1499   1.436       .  S
C1252      C1253   1.399       .  A
C1252      C1257   1.400       .  A
C1253      C1254   1.400       .  A
C1253      H1258   1.084       .  S
C1254      C1470   1.436       .  S
C1254      C1255   1.400       .  A
C1255      C1256   1.407       .  A
C1255      H1259   1.082       .  S
C1256      C1257   1.402       .  A
C1256      C1466   1.483       .  S
C1257      H1260   1.085       .  S
C1261      C1862   1.417   1_545  A
C1261      C1472   1.484       .  S
C1262      C1861   1.417       .  A
C1262      C1263   1.415       .  A
C1262      C1461   1.490       .  S
C1263      C1457   1.488       .  S
C1264      C1865   1.411       .  A
C1264      C1465   1.484       .  S
C1265      C1864   1.411   1_545  A
C1265      C1266   1.408       .  A
C1265      C1449   1.486       .  S
C1266      C1453   1.484       .  S
C1267      C1447   1.443       .  S
C1267      C1268   1.405       .  A
C1267      C1272   1.398       .  A
C1268      C1269   1.406       .  A
C1268      H1273   1.084       .  S
C1269      C1489   1.446       .  S
C1269      C1270   1.404       .  A
C1270      C1271   1.408       .  A
C1270      H1274   1.083       .  S
C1271      C1272   1.400       .  A
C1271      C1462   1.483       .  S
C1272      H1275   1.085       .  S
C1276      C1480   1.436       .  S
C1276      C1277   1.400       .  A
C1276      C1281   1.400       .  A
C1277      C1278   1.401       .  A
C1277      H1282   1.084       .  S
C1278      C1446   1.440       .  S
C1278      C1279   1.401       .  A
C1279      C1280   1.410       .  A
C1279      H1283   1.083       .  S
C1280      C1281   1.400       .  A
C1280      C1454   1.485       .  S
C1281      H1284   1.085       .  S
C1285      C1444   1.443       .  S
C1285      C1286   1.406       .  A
C1285      C1290   1.399       .  A
C1286      C1287   1.406       .  A
C1286      H1291   1.084       .  S
C1287      C1486   1.447       .  S
C1287      C1288   1.402       .  A
C1288      C1289   1.409       .  A
C1288      H1292   1.082       .  S
C1289      C1290   1.401       .  A
C1289      C1450   1.486       .  S
C1290      H1293   1.085       .  S
C1294      C1478   1.440       .  S
C1294      C1295   1.402       .  A
C1294      C1299   1.402       .  A
C1295      C1296   1.407       .  A
C1295      H1300   1.082       .  S
C1296      C1297   1.402       .  A
C1296      C1458   1.483       .  S
C1297      C1298   1.399       .  A
C1297      H1301   1.085       .  S
C1298      C1441   1.438       .  S
C1298      C1299   1.401       .  A
C1299      H1302   1.084       .  S
C1303      C1439   1.440       .  S
C1303      C1304   1.400       .  A
C1303      C1308   1.403       .  A
C1304      C1305   1.399       .  A
C1304      H1309   1.084       .  S
C1305      C1496   1.433       .  S
C1305      C1306   1.397       .  A
C1306      C1307   1.398       .  A
C1306      H1310   1.085       .  S
C1307      C1308   1.411       .  A
C1307      C1435   1.483       .  S
C1308      H1311   1.083       .  S
C1312      C1497   1.432       .  S
C1312      C1313   1.398       .  A
C1312      C1317   1.397       .  A
C1313      C1314   1.400       .  A
C1313      H1318   1.085       .  S
C1314      C1433   1.438       .  S
C1314      C1315   1.402       .  A
C1315      C1316   1.409       .  A
C1315      H1319   1.083       .  S
C1316      C1317   1.398       .  A
C1316      C1429   1.480       .  S
C1317      H1320   1.085       .  S
C1321      C1922   1.407   1_545  A
C1321      C1436   1.481       .  S
C1322      C1921   1.405       .  A
C1322      C1323   1.413       .  A
C1322      C1425   1.485       .  S
C1323      C1421   1.484       .  S
C1324      C1925   1.413       .  A
C1324      C1430   1.483       .  S
C1325      C1924   1.414   1_545  A
C1325      C1326   1.406       .  A
C1325      C1413   1.485       .  S
C1326      C1417   1.478       .  S
C1327      C1412   1.443       .  S
C1327      C1328   1.405       .  A
C1327      C1332   1.400       .  A
C1328      C1329   1.405       .  A
C1328      H1333   1.084       .  S
C1329      C1487   1.443       .  S
C1329      C1330   1.400       .  A
C1330      C1331   1.407       .  A
C1330      H1334   1.082       .  S
C1331      C1332   1.401       .  A
C1331      C1414   1.483       .  S
C1332      H1335   1.085       .  S
C1336      C1482   1.437       .  S
C1336      C1337   1.399       .  A
C1336      C1341   1.403       .  A
C1337      C1338   1.396       .  A
C1337      H1342   1.085       .  S
C1338      C1339   1.406       .  A
C1338      C1418   1.474       .  S
C1339      C1340   1.402       .  A
C1339      H1343   1.085       .  S
C1340      C1409   1.441       .  S
C1340      C1341   1.403       .  A
C1341      H1344   1.084       .  S
C1345      C1407   1.446       .  S
C1345      C1346   1.402       .  A
C1345      C1350   1.406       .  A
C1346      C1347   1.408       .  A
C1346      H1351   1.082       .  S
C1347      C1348   1.399       .  A
C1347      C1426   1.484       .  S
C1348      C1349   1.398       .  A
C1348      H1352   1.085       .  S
C1349      C1492   1.442       .  S
C1349      C1350   1.405       .  A
C1350      H1353   1.084       .  S
C1354      C1483   1.435       .  S
C1354      C1355   1.397       .  A
C1354      C1359   1.400       .  A
C1355      C1356   1.398       .  A
C1355      H1360   1.085       .  S
C1356      C1357   1.409       .  A
C1356      C1422   1.481       .  S
C1357      C1358   1.403       .  A
C1357      H1361   1.083       .  S
C1358      C1406   1.441       .  S
C1358      C1359   1.402       .  A
C1359      H1362   1.084       .  S
O1363     Ni1371   1.923       .  S
O1363      C1373   1.280       .  A
O1364     Ni1371   1.921       .  S
O1364      C1974   1.281       .  A
O1365     Ni1371   1.920       .  S
O1365      C1375   1.279       .  A
O1366     Ni1371   1.918       .  S
O1366      C1976   1.280       .  A
O1367     Ni1372   1.923       .  S
O1367      C1376   1.280       .  A
O1368     Ni1372   1.921   1_565  S
O1368      C1975   1.281       .  A
O1369     Ni1372   1.922       .  S
O1369      C1374   1.280       .  A
O1370     Ni1372   1.922   1_565  S
O1370      C1973   1.281       .  A
Ni1371    Ni1972   2.393       .  S
Ni1372    Ni1971   2.393   1_545  S
C1373      O1970   1.281       .  A
C1373      C1408   1.441       .  S
C1374      O1964   1.281       .  A
C1374      C1443   1.439       .  S
C1375      O1968   1.281       .  A
C1375      C1448   1.438       .  S
C1376      O1966   1.280   1_545  A
C1376      C1411   1.438       .  S
O1377     Ni1385   1.915   1_554  S
O1377      C1987   1.279       .  A
O1378     Ni1685   1.917       .  S
O1378      C1388   1.280       .  A
O1379     Ni1685   1.915       .  S
O1379      C1989   1.279       .  A
O1380     Ni1385   1.914   1_554  S
O1380      C1390   1.279       .  A
O1381     Ni1386   1.916   1_554  S
O1381      C1990   1.280   1_545  A
O1382     Ni1686   1.920       .  S
O1382      C1389   1.280       .  A
O1383     Ni1686   1.914       .  S
O1383      C1988   1.279   1_545  A
O1384     Ni1386   1.913   1_554  S
O1384      C1387   1.278       .  A
Ni1385     O1678   1.917       .  S
Ni1385     O1679   1.916       .  S
Ni1385    Ni1986   2.396       .  S
Ni1386     O1682   1.919       .  S
Ni1386     O1683   1.914       .  S
Ni1386    Ni1985   2.395   1_545  S
C1387      O1977   1.280   1_545  A
C1387      C1475   1.430       .  S
C1388      O1983   1.279       .  A
C1388      C1434   1.433       .  S
C1389      O1979   1.279   1_545  A
C1389      C1440   1.435       .  S
C1390      O1981   1.280       .  A
C1390      C1469   1.431       .  S
O1391     Ni1399   1.920       .  S
O1391      C1401   1.280       .  A
O1392     Ni1399   1.921       .  S
O1392      C1402   1.280       .  A
O1393     Ni1399   1.918       .  S
O1393      C1403   1.280       .  A
O1394     Ni1399   1.917       .  S
O1394      C1404   1.279       .  A
O1395     Ni1400   1.917       .  S
O1395      C1404   1.280       .  A
O1396     Ni1400   1.920       .  S
O1396      C1403   1.280       .  A
O1397     Ni1400   1.916       .  S
O1397      C1402   1.279       .  A
O1398     Ni1400   1.915       .  S
O1398      C1401   1.279       .  A
Ni1399    Ni1400   2.394       .  S
C1401      C1445   1.434       .  S
C1402      C1405   1.435       .  S
C1403      C1410   1.436       .  S
C1404      C1442   1.434       .  S
C1405      C1406   1.206       .  T
C1407      C1408   1.209       .  T
C1409      C1410   1.207       .  T
C1411      C1412   1.208       .  T
C1413      C1414   1.343       .  D
C1413      H1415   1.084       .  S
C1414      H1416   1.087       .  S
C1417      C1418   1.337       .  D
C1417      H1419   1.086       .  S
C1418      H1420   1.087       .  S
C1421      C1422   1.340       .  D
C1421      H1423   1.085       .  S
C1422      H1424   1.087       .  S
C1425      C1426   1.342       .  D
C1425      H1427   1.084       .  S
C1426      H1428   1.087       .  S
C1429      C1430   1.340       .  D
C1429      H1431   1.087       .  S
C1430      H1432   1.085       .  S
C1433      C1434   1.205       .  T
C1435      C1436   1.338       .  D
C1435      H1437   1.087       .  S
C1436      H1438   1.084       .  S
C1439      C1440   1.206       .  T
C1441      C1442   1.205       .  T
C1443      C1444   1.208       .  T
C1445      C1446   1.206       .  T
C1447      C1448   1.208       .  T
C1449      C1450   1.342       .  D
C1449      H1451   1.083       .  S
C1450      H1452   1.087       .  S
C1453      C1454   1.341       .  D
C1453      H1455   1.084       .  S
C1454      H1456   1.087       .  S
C1457      C1458   1.344       .  D
C1457      H1459   1.084       .  S
C1458      H1460   1.087       .  S
C1461      C1462   1.344       .  D
C1461      H1463   1.084       .  S
C1462      H1464   1.087       .  S
C1465      C1466   1.344       .  D
C1465      H1467   1.083       .  S
C1466      H1468   1.087       .  S
C1469      C1470   1.203       .  T
C1471      C1472   1.343       .  D
C1471      H1473   1.087       .  S
C1472      H1474   1.085       .  S
C1475      C1476   1.203       .  T
C1477      C1478   1.205       .  T
C1479      C1480   1.204       .  T
C1481      C1482   1.204       .  T
C1483      C1484   1.203       .  T
C1485      C1486   1.210       .  T
C1487      C1488   1.208       .  T
C1489      C1490   1.210       .  T
C1491      C1492   1.208       .  T
C1493      C1494   1.203       .  T
C1495      C1496   1.202       .  T
C1497      C1498   1.201       .  T
C1499      C1500   1.203       .  T
O1501     Ni1509   1.910       .  S
O1501      C1511   1.277       .  A
O1502     Ni1509   1.909       .  S
O1503     Ni1509   1.917       .  S
O1503      C1513   1.279       .  A
O1504     Ni1509   1.913       .  S
O1505     Ni1510   1.911       .  S
O1505      C1514   1.278       .  A
O1506     Ni1510   1.911   1_455  S
O1507     Ni1510   1.917       .  S
O1507      C1512   1.279       .  A
O1508     Ni1510   1.914       .  S
C1511      C1798   1.426       .  S
C1512      C1794   1.430       .  S
C1513      C1800   1.430       .  S
C1514      C1795   1.428       .  S
O1515      C1525   1.281       .  A
O1516     Ni1523   1.921   1_556  S
O1516      C1526   1.280       .  A
O1517     Ni1523   1.924   1_556  S
O1517      C1527   1.282       .  A
O1518      C1528   1.281       .  A
O1519      C1528   1.280       .  A
O1520     Ni1524   1.919   1_556  S
O1520      C1527   1.279       .  A
O1521     Ni1524   1.921   1_556  S
O1521      C1526   1.281       .  A
O1522      C1525   1.281       .  A
Ni1523    Ni1524   2.392       .  S
C1525      C1785   1.442       .  S
C1526      C1791   1.438       .  S
C1527      C1788   1.439       .  S
C1528      C1790   1.440       .  S
O1529     Ni1537   1.911   1_556  S
O1529      C1539   1.277       .  A
O1531      C1541   1.280       .  A
O1532     Ni1537   1.916   1_456  S
O1533     Ni1538   1.915   1_556  S
O1533      C1542   1.278       .  A
O1535      C1540   1.280       .  A
O1536     Ni1538   1.916   1_556  S
C1539      C1784   1.429       .  S
C1540      C1779   1.431       .  S
C1541      C1777   1.434       .  S
C1542      C1781   1.431       .  S
C1543      C1776   1.436       .  S
C1543      C1544   1.399       .  A
C1543      C1548   1.399       .  A
C1544      C1545   1.399       .  A
C1544      H1549   1.085       .  S
C1545      C1793   1.436       .  S
C1545      C1546   1.401       .  A
C1546      C1547   1.402       .  A
C1546      H1550   1.085       .  S
C1547      C1548   1.407       .  A
C1547      C1771   1.482       .  S
C1548      H1551   1.083       .  S
C1552      C1799   1.435       .  S
C1552      C1553   1.399       .  A
C1552      C1557   1.400       .  A
C1553      C1554   1.400       .  A
C1553      H1558   1.084       .  S
C1554      C1770   1.435       .  S
C1554      C1555   1.399       .  A
C1555      C1556   1.406       .  A
C1555      H1559   1.082       .  S
C1556      C1557   1.401       .  A
C1556      C1766   1.481       .  S
C1557      H1560   1.085       .  S
C1561      C2162   1.417   1_545  A
C1561      C1772   1.484       .  S
C1562      C2161   1.417       .  A
C1562      C1563   1.415       .  A
C1562      C1761   1.490       .  S
C1563      C1757   1.487       .  S
C1564      C2165   1.410       .  A
C1564      C1765   1.482       .  S
C1565      C2164   1.411   1_545  A
C1565      C1566   1.408       .  A
C1565      C1749   1.486       .  S
C1566      C1753   1.484       .  S
C1567      C1747   1.442       .  S
C1567      C1568   1.404       .  A
C1567      C1572   1.398       .  A
C1568      C1569   1.405       .  A
C1568      H1573   1.084       .  S
C1569      C1789   1.445       .  S
C1569      C1570   1.404       .  A
C1570      C1571   1.408       .  A
C1570      H1574   1.083       .  S
C1571      C1572   1.400       .  A
C1571      C1762   1.483       .  S
C1572      H1575   1.085       .  S
C1576      C1780   1.436       .  S
C1576      C1577   1.400       .  A
C1576      C1581   1.400       .  A
C1577      C1578   1.401       .  A
C1577      H1582   1.084       .  S
C1578      C1746   1.440       .  S
C1578      C1579   1.401       .  A
C1579      C1580   1.410       .  A
C1579      H1583   1.083       .  S
C1580      C1581   1.400       .  A
C1580      C1754   1.485       .  S
C1581      H1584   1.085       .  S
C1585      C1744   1.443       .  S
C1585      C1586   1.405       .  A
C1585      C1590   1.399       .  A
C1586      C1587   1.406       .  A
C1586      H1591   1.084       .  S
C1587      C1786   1.447       .  S
C1587      C1588   1.402       .  A
C1588      C1589   1.409       .  A
C1588      H1592   1.082       .  S
C1589      C1590   1.400       .  A
C1589      C1750   1.486       .  S
C1590      H1593   1.085       .  S
C1594      C1778   1.439       .  S
C1594      C1595   1.402       .  A
C1594      C1599   1.402       .  A
C1595      C1596   1.407       .  A
C1595      H1600   1.082       .  S
C1596      C1597   1.402       .  A
C1596      C1758   1.483       .  S
C1597      C1598   1.399       .  A
C1597      H1601   1.085       .  S
C1598      C1741   1.438       .  S
C1598      C1599   1.401       .  A
C1599      H1602   1.084       .  S
C1603      C1739   1.439       .  S
C1603      C1604   1.402       .  A
C1603      C1608   1.403       .  A
C1604      C1605   1.401       .  A
C1604      H1609   1.084       .  S
C1605      C1796   1.433       .  S
C1605      C1606   1.398       .  A
C1606      C1607   1.395       .  A
C1606      H1610   1.085       .  S
C1607      C1608   1.405       .  A
C1607      C1735   1.471       .  S
C1608      H1611   1.085       .  S
C1612      C1797   1.432       .  S
C1612      C1613   1.398       .  A
C1612      C1617   1.397       .  A
C1613      C1614   1.400       .  A
C1613      H1618   1.085       .  S
C1614      C1733   1.437       .  S
C1614      C1615   1.402       .  A
C1615      C1616   1.409       .  A
C1615      H1619   1.083       .  S
C1616      C1617   1.398       .  A
C1616      C1729   1.479       .  S
C1617      H1620   1.085       .  S
C1621      C2222   1.408   1_545  A
C1621      C1736   1.478       .  S
C1622      C2221   1.407       .  A
C1622      C1623   1.413       .  A
C1622      C1725   1.486       .  S
C1623      C1721   1.484       .  S
C1624      C2225   1.413       .  A
C1624      C1730   1.483       .  S
C1625      C2224   1.413   1_545  A
C1625      C1626   1.406       .  A
C1625      C1713   1.486       .  S
C1626      C1717   1.478       .  S
C1627      C1712   1.443       .  S
C1627      C1628   1.404       .  A
C1627      C1632   1.400       .  A
C1628      C1629   1.405       .  A
C1628      H1633   1.084       .  S
C1629      C1787   1.444       .  S
C1629      C1630   1.400       .  A
C1630      C1631   1.408       .  A
C1630      H1634   1.082       .  S
C1631      C1632   1.401       .  A
C1631      C1714   1.485       .  S
C1632      H1635   1.085       .  S
C1636      C1782   1.435       .  S
C1636      C1637   1.398       .  A
C1636      C1641   1.402       .  A
C1637      C1638   1.397       .  A
C1637      H1642   1.085       .  S
C1638      C1639   1.409       .  A
C1638      C1718   1.481       .  S
C1639      C1640   1.402       .  A
C1639      H1643   1.083       .  S
C1640      C1709   1.441       .  S
C1640      C1641   1.402       .  A
C1641      H1644   1.084       .  S
C1645      C1707   1.446       .  S
C1645      C1646   1.402       .  A
C1645      C1650   1.406       .  A
C1646      C1647   1.408       .  A
C1646      H1651   1.082       .  S
C1647      C1648   1.400       .  A
C1647      C1726   1.484       .  S
C1648      C1649   1.399       .  A
C1648      H1652   1.085       .  S
C1649      C1792   1.442       .  S
C1649      C1650   1.405       .  A
C1650      H1653   1.084       .  S
C1654      C1783   1.434       .  S
C1654      C1655   1.397       .  A
C1654      C1659   1.400       .  A
C1655      C1656   1.398       .  A
C1655      H1660   1.085       .  S
C1656      C1657   1.409       .  A
C1656      C1722   1.480       .  S
C1657      C1658   1.403       .  A
C1657      H1661   1.083       .  S
C1658      C1706   1.441       .  S
C1658      C1659   1.402       .  A
C1659      H1662   1.084       .  S
O1663     Ni1671   1.923       .  S
O1663      C1673   1.280       .  A
O1664     Ni1671   1.921       .  S
O1664      C2274   1.281       .  A
O1665     Ni1671   1.919       .  S
O1665      C1675   1.279       .  A
O1666     Ni1671   1.918       .  S
O1666      C2276   1.280       .  A
O1667     Ni1672   1.923       .  S
O1667      C1676   1.280       .  A
O1668     Ni1672   1.921   1_565  S
O1668      C2275   1.281       .  A
O1669     Ni1672   1.921       .  S
O1669      C1674   1.280       .  A
O1670     Ni1672   1.921   1_565  S
O1670      C2273   1.281       .  A
Ni1671    Ni2272   2.393       .  S
Ni1672    Ni2271   2.393   1_545  S
C1673      O2270   1.281       .  A
C1673      C1708   1.441       .  S
C1674      O2264   1.281       .  A
C1674      C1743   1.439       .  S
C1675      O2268   1.281       .  A
C1675      C1748   1.437       .  S
C1676      O2266   1.280   1_545  A
C1676      C1711   1.438       .  S
O1677     Ni1685   1.915       .  S
O1677      C2287   1.279       .  A
O1678      C1688   1.280       .  A
O1679      C2289   1.279       .  A
O1680     Ni1685   1.913       .  S
O1680      C1690   1.278       .  A
O1681     Ni1686   1.917       .  S
O1681      C2290   1.280   1_545  A
O1682      C1689   1.280       .  A
O1683      C2288   1.279   1_545  A
O1684     Ni1686   1.913       .  S
O1684      C1687   1.279       .  A
Ni1685    Ni2286   2.395       .  S
Ni1686    Ni2285   2.395   1_545  S
C1687      O2277   1.280   1_545  A
C1687      C1775   1.431       .  S
C1688      O2283   1.279       .  A
C1688      C1734   1.432       .  S
C1689      O2279   1.279   1_545  A
C1689      C1740   1.434       .  S
C1690      O2281   1.280       .  A
C1690      C1769   1.429       .  S
O1691     Ni1699   1.920       .  S
O1691      C1701   1.280       .  A
O1692     Ni1699   1.920       .  S
O1692      C1702   1.280       .  A
O1693     Ni1699   1.919       .  S
O1693      C1703   1.280       .  A
O1694     Ni1699   1.918       .  S
O1694      C1704   1.279       .  A
O1695     Ni1700   1.916       .  S
O1695      C1704   1.280       .  A
O1696     Ni1700   1.919       .  S
O1696      C1703   1.280       .  A
O1697     Ni1700   1.916       .  S
O1697      C1702   1.279       .  A
O1698     Ni1700   1.916       .  S
O1698      C1701   1.279       .  A
Ni1699    Ni1700   2.394       .  S
C1701      C1745   1.435       .  S
C1702      C1705   1.435       .  S
C1703      C1710   1.436       .  S
C1704      C1742   1.433       .  S
C1705      C1706   1.206       .  T
C1707      C1708   1.209       .  T
C1709      C1710   1.207       .  T
C1711      C1712   1.208       .  T
C1713      C1714   1.343       .  D
C1713      H1715   1.083       .  S
C1714      H1716   1.087       .  S
C1717      C1718   1.338       .  D
C1717      H1719   1.085       .  S
C1718      H1720   1.087       .  S
C1721      C1722   1.340       .  D
C1721      H1723   1.085       .  S
C1722      H1724   1.087       .  S
C1725      C1726   1.342       .  D
C1725      H1727   1.084       .  S
C1726      H1728   1.087       .  S
C1729      C1730   1.339       .  D
C1729      H1731   1.087       .  S
C1730      H1732   1.085       .  S
C1733      C1734   1.204       .  T
C1735      C1736   1.336       .  D
C1735      H1737   1.087       .  S
C1736      H1738   1.087       .  S
C1739      C1740   1.205       .  T
C1741      C1742   1.205       .  T
C1743      C1744   1.208       .  T
C1745      C1746   1.206       .  T
C1747      C1748   1.207       .  T
C1749      C1750   1.342       .  D
C1749      H1751   1.083       .  S
C1750      H1752   1.087       .  S
C1753      C1754   1.341       .  D
C1753      H1755   1.084       .  S
C1754      H1756   1.087       .  S
C1757      C1758   1.344       .  D
C1757      H1759   1.084       .  S
C1758      H1760   1.087       .  S
C1761      C1762   1.344       .  D
C1761      H1763   1.084       .  S
C1762      H1764   1.087       .  S
C1765      C1766   1.343       .  D
C1765      H1767   1.084       .  S
C1766      H1768   1.088       .  S
C1769      C1770   1.203       .  T
C1771      C1772   1.343       .  D
C1771      H1773   1.087       .  S
C1772      H1774   1.085       .  S
C1775      C1776   1.203       .  T
C1777      C1778   1.205       .  T
C1779      C1780   1.204       .  T
C1781      C1782   1.203       .  T
C1783      C1784   1.202       .  T
C1785      C1786   1.210       .  T
C1787      C1788   1.208       .  T
C1789      C1790   1.209       .  T
C1791      C1792   1.208       .  T
C1793      C1794   1.203       .  T
C1795      C1796   1.202       .  T
C1797      C1798   1.201       .  T
C1799      C1800   1.203       .  T
O1801     Ni1809   1.910       .  S
O1801      C1811   1.277       .  A
O1802     Ni1809   1.910       .  S
O1803     Ni1809   1.919       .  S
O1803      C1813   1.280       .  A
O1804     Ni1809   1.915       .  S
O1805     Ni1810   1.910       .  S
O1805      C1814   1.277       .  A
O1806     Ni1810   1.910   1_455  S
O1807     Ni1810   1.917       .  S
O1807      C1812   1.280       .  A
O1808     Ni1810   1.913       .  S
C1811      C2098   1.427       .  S
C1812      C2094   1.429       .  S
C1813      C2100   1.431       .  S
C1814      C2095   1.427       .  S
O1815     Ni2123   1.922       .  S
O1815      C1825   1.281       .  A
O1816     Ni1823   1.920       .  S
O1816      C1826   1.279       .  A
O1817     Ni1823   1.925       .  S
O1817      C1827   1.282       .  A
O1818     Ni2123   1.925       .  S
O1818      C1828   1.281       .  A
O1819     Ni2124   1.919       .  S
O1819      C1828   1.280       .  A
O1820     Ni1824   1.919       .  S
O1820      C1827   1.279       .  A
O1821     Ni1824   1.921       .  S
O1821      C1826   1.281       .  A
O1822     Ni2124   1.924       .  S
O1822      C1825   1.281       .  A
Ni1823     O2115   1.921       .  S
Ni1823     O2118   1.926       .  S
Ni1823    Ni1824   2.392       .  S
Ni1824     O2119   1.918       .  S
Ni1824     O2122   1.924       .  S
C1825      C2085   1.442       .  S
C1826      C2091   1.438       .  S
C1827      C2088   1.440       .  S
C1828      C2090   1.440       .  S
O1829     Ni1837   1.913       .  S
O1829      C1839   1.278       .  A
O1830     Ni2137   1.911       .  S
O1831     Ni2137   1.917       .  S
O1831      C1841   1.279       .  A
O1832     Ni1837   1.917   1_455  S
O1833     Ni1838   1.916       .  S
O1833      C1842   1.279       .  A
O1834     Ni2138   1.915       .  S
O1835     Ni2138   1.920       .  S
O1835      C1840   1.280       .  A
O1836     Ni1838   1.916       .  S
Ni1837     O2130   1.910       .  S
Ni1837     O2131   1.919       .  S
Ni1838     O2134   1.916       .  S
Ni1838     O2135   1.919       .  S
C1839      C2084   1.431       .  S
C1840      C2079   1.431       .  S
C1841      C2077   1.434       .  S
C1842      C2081   1.431       .  S
C1843      C2076   1.435       .  S
C1843      C1844   1.398       .  A
C1843      C1848   1.399       .  A
C1844      C1845   1.398       .  A
C1844      H1849   1.085       .  S
C1845      C2093   1.435       .  S
C1845      C1846   1.401       .  A
C1846      C1847   1.402       .  A
C1846      H1850   1.085       .  S
C1847      C1848   1.407       .  A
C1847      C2071   1.482       .  S
C1848      H1851   1.083       .  S
C1852      C2099   1.436       .  S
C1852      C1853   1.399       .  A
C1852      C1857   1.401       .  A
C1853      C1854   1.399       .  A
C1853      H1858   1.084       .  S
C1854      C2070   1.435       .  S
C1854      C1855   1.399       .  A
C1855      C1856   1.407       .  A
C1855      H1859   1.082       .  S
C1856      C1857   1.402       .  A
C1856      C2066   1.483       .  S
C1857      H1860   1.085       .  S
C1861      C2072   1.484       .  S
C1862      C1863   1.415       .  A
C1862      C2061   1.489       .  S
C1863      C2057   1.487       .  S
C1864      C2065   1.483       .  S
C1865      C1866   1.408       .  A
C1865      C2049   1.486       .  S
C1866      C2053   1.484       .  S
C1867      C2047   1.442       .  S
C1867      C1868   1.404       .  A
C1867      C1872   1.398       .  A
C1868      C1869   1.406       .  A
C1868      H1873   1.084       .  S
C1869      C2089   1.445       .  S
C1869      C1870   1.403       .  A
C1870      C1871   1.408       .  A
C1870      H1874   1.083       .  S
C1871      C1872   1.400       .  A
C1871      C2062   1.483       .  S
C1872      H1875   1.085       .  S
C1876      C2080   1.436       .  S
C1876      C1877   1.399       .  A
C1876      C1881   1.401       .  A
C1877      C1878   1.400       .  A
C1877      H1882   1.084       .  S
C1878      C2046   1.439       .  S
C1878      C1879   1.401       .  A
C1879      C1880   1.410       .  A
C1879      H1883   1.083       .  S
C1880      C1881   1.401       .  A
C1880      C2054   1.485       .  S
C1881      H1884   1.085       .  S
C1885      C2044   1.443       .  S
C1885      C1886   1.405       .  A
C1885      C1890   1.399       .  A
C1886      C1887   1.406       .  A
C1886      H1891   1.084       .  S
C1887      C2086   1.447       .  S
C1887      C1888   1.402       .  A
C1888      C1889   1.409       .  A
C1888      H1892   1.082       .  S
C1889      C1890   1.400       .  A
C1889      C2050   1.486       .  S
C1890      H1893   1.085       .  S
C1894      C2078   1.439       .  S
C1894      C1895   1.401       .  A
C1894      C1899   1.402       .  A
C1895      C1896   1.407       .  A
C1895      H1900   1.082       .  S
C1896      C1897   1.402       .  A
C1896      C2058   1.483       .  S
C1897      C1898   1.400       .  A
C1897      H1901   1.085       .  S
C1898      C2041   1.439       .  S
C1898      C1899   1.401       .  A
C1899      H1902   1.084       .  S
C1903      C2039   1.439       .  S
C1903      C1904   1.401       .  A
C1903      C1908   1.402       .  A
C1904      C1905   1.399       .  A
C1904      H1909   1.084       .  S
C1905      C2096   1.432       .  S
C1905      C1906   1.397       .  A
C1906      C1907   1.396       .  A
C1906      H1910   1.085       .  S
C1907      C1908   1.409       .  A
C1907      C2035   1.479       .  S
C1908      H1911   1.083       .  S
C1912      C2097   1.432       .  S
C1912      C1913   1.398       .  A
C1912      C1917   1.397       .  A
C1913      C1914   1.400       .  A
C1913      H1918   1.085       .  S
C1914      C2033   1.439       .  S
C1914      C1915   1.403       .  A
C1915      C1916   1.409       .  A
C1915      H1919   1.083       .  S
C1916      C1917   1.398       .  A
C1916      C2029   1.480       .  S
C1917      H1920   1.085       .  S
C1921      C2036   1.478       .  S
C1922      C1923   1.414       .  A
C1922      C2025   1.486       .  S
C1923      C2021   1.485       .  S
C1924      C2030   1.484       .  S
C1925      C1926   1.406       .  A
C1925      C2013   1.487       .  S
C1926      C2017   1.480       .  S
C1927      C2012   1.444       .  S
C1927      C1928   1.405       .  A
C1927      C1932   1.400       .  A
C1928      C1929   1.405       .  A
C1928      H1933   1.084       .  S
C1929      C2087   1.445       .  S
C1929      C1930   1.400       .  A
C1930      C1931   1.408       .  A
C1930      H1934   1.082       .  S
C1931      C1932   1.401       .  A
C1931      C2014   1.485       .  S
C1932      H1935   1.085       .  S
C1936      C2082   1.436       .  S
C1936      C1937   1.399       .  A
C1936      C1941   1.401       .  A
C1937      C1938   1.399       .  A
C1937      H1942   1.085       .  S
C1938      C1939   1.410       .  A
C1938      C2018   1.484       .  S
C1939      C1940   1.402       .  A
C1939      H1943   1.082       .  S
C1940      C2009   1.442       .  S
C1940      C1941   1.402       .  A
C1941      H1944   1.084       .  S
C1945      C2007   1.447       .  S
C1945      C1946   1.403       .  A
C1945      C1950   1.406       .  A
C1946      C1947   1.409       .  A
C1946      H1951   1.082       .  S
C1947      C1948   1.399       .  A
C1947      C2026   1.484       .  S
C1948      C1949   1.398       .  A
C1948      H1952   1.085       .  S
C1949      C2092   1.442       .  S
C1949      C1950   1.405       .  A
C1950      H1953   1.084       .  S
C1954      C2083   1.436       .  S
C1954      C1955   1.398       .  A
C1954      C1959   1.400       .  A
C1955      C1956   1.399       .  A
C1955      H1960   1.085       .  S
C1956      C1957   1.408       .  A
C1956      C2022   1.481       .  S
C1957      C1958   1.403       .  A
C1957      H1961   1.083       .  S
C1958      C2006   1.440       .  S
C1958      C1959   1.402       .  A
C1959      H1962   1.084       .  S
O1963     Ni1971   1.924       .  S
O1963      C1973   1.281       .  A
O1964     Ni1971   1.921   1_545  S
O1965     Ni1971   1.919       .  S
O1965      C1975   1.279       .  A
O1966     Ni1971   1.918       .  S
O1967     Ni1972   1.924       .  S
O1967      C1976   1.280       .  A
O1968     Ni1972   1.922       .  S
O1969     Ni1972   1.922       .  S
O1969      C1974   1.280       .  A
O1970     Ni1972   1.922       .  S
C1973      C2008   1.442       .  S
C1974      C2043   1.439       .  S
C1975      C2048   1.438       .  S
C1976      C2011   1.439       .  S
O1977     Ni1985   1.916   1_554  S
O1978     Ni2285   1.918       .  S
O1978      C1988   1.280       .  A
O1979     Ni2285   1.916       .  S
O1980     Ni1985   1.913   1_554  S
O1980      C1990   1.278       .  A
O1981     Ni1986   1.916   1_554  S
O1982     Ni2286   1.918       .  S
O1982      C1989   1.280       .  A
O1983     Ni2286   1.915       .  S
O1984     Ni1986   1.913   1_554  S
O1984      C1987   1.279       .  A
Ni1985     O2278   1.918       .  S
Ni1985     O2279   1.914       .  S
Ni1986     O2282   1.918       .  S
Ni1986     O2283   1.914       .  S
C1987      C2075   1.429       .  S
C1988      C2034   1.433       .  S
C1989      C2040   1.433       .  S
C1990      C2069   1.430       .  S
O1991     Ni1999   1.919       .  S
O1991      C2001   1.280       .  A
O1992     Ni1999   1.919       .  S
O1992      C2002   1.280       .  A
O1993     Ni1999   1.919       .  S
O1993      C2003   1.280       .  A
O1994     Ni1999   1.919       .  S
O1994      C2004   1.280       .  A
O1995     Ni2000   1.916       .  S
O1995      C2004   1.280       .  A
O1996     Ni2000   1.918       .  S
O1996      C2003   1.280       .  A
O1997     Ni2000   1.916       .  S
O1997      C2002   1.279       .  A
O1998     Ni2000   1.916       .  S
O1998      C2001   1.279       .  A
Ni1999    Ni2000   2.394       .  S
C2001      C2045   1.434       .  S
C2002      C2005   1.435       .  S
C2003      C2010   1.436       .  S
C2004      C2042   1.434       .  S
C2005      C2006   1.206       .  T
C2007      C2008   1.210       .  T
C2009      C2010   1.207       .  T
C2011      C2012   1.208       .  T
C2013      C2014   1.343       .  D
C2013      H2015   1.083       .  S
C2014      H2016   1.087       .  S
C2017      C2018   1.339       .  D
C2017      H2019   1.084       .  S
C2018      H2020   1.087       .  S
C2021      C2022   1.341       .  D
C2021      H2023   1.085       .  S
C2022      H2024   1.087       .  S
C2025      C2026   1.341       .  D
C2025      H2027   1.084       .  S
C2026      H2028   1.087       .  S
C2029      C2030   1.339       .  D
C2029      H2031   1.087       .  S
C2030      H2032   1.085       .  S
C2033      C2034   1.205       .  T
C2035      C2036   1.337       .  D
C2035      H2037   1.087       .  S
C2036      H2038   1.085       .  S
C2039      C2040   1.205       .  T
C2041      C2042   1.205       .  T
C2043      C2044   1.208       .  T
C2045      C2046   1.205       .  T
C2047      C2048   1.207       .  T
C2049      C2050   1.342       .  D
C2049      H2051   1.083       .  S
C2050      H2052   1.087       .  S
C2053      C2054   1.341       .  D
C2053      H2055   1.084       .  S
C2054      H2056   1.087       .  S
C2057      C2058   1.345       .  D
C2057      H2059   1.084       .  S
C2058      H2060   1.087       .  S
C2061      C2062   1.344       .  D
C2061      H2063   1.084       .  S
C2062      H2064   1.087       .  S
C2065      C2066   1.344       .  D
C2065      H2067   1.083       .  S
C2066      H2068   1.087       .  S
C2069      C2070   1.203       .  T
C2071      C2072   1.343       .  D
C2071      H2073   1.087       .  S
C2072      H2074   1.085       .  S
C2075      C2076   1.203       .  T
C2077      C2078   1.205       .  T
C2079      C2080   1.204       .  T
C2081      C2082   1.204       .  T
C2083      C2084   1.203       .  T
C2085      C2086   1.210       .  T
C2087      C2088   1.209       .  T
C2089      C2090   1.209       .  T
C2091      C2092   1.208       .  T
C2093      C2094   1.203       .  T
C2095      C2096   1.201       .  T
C2097      C2098   1.201       .  T
C2099      C2100   1.204       .  T
O2101     Ni2109   1.912       .  S
O2101      C2111   1.278       .  A
O2102     Ni2109   1.911       .  S
O2103     Ni2109   1.918       .  S
O2103      C2113   1.280       .  A
O2104     Ni2109   1.914       .  S
O2105     Ni2110   1.912       .  S
O2105      C2114   1.278       .  A
O2106     Ni2110   1.911   1_455  S
O2107     Ni2110   1.917       .  S
O2107      C2112   1.279       .  A
O2108     Ni2110   1.913       .  S
C2111      C2398   1.427       .  S
C2112      C2394   1.429       .  S
C2113      C2400   1.431       .  S
C2114      C2395   1.427       .  S
O2115      C2125   1.281       .  A
O2116     Ni2123   1.921   1_556  S
O2116      C2126   1.280       .  A
O2117     Ni2123   1.924   1_556  S
O2117      C2127   1.282       .  A
O2118      C2128   1.281       .  A
O2119      C2128   1.280       .  A
O2120     Ni2124   1.920   1_556  S
O2120      C2127   1.279       .  A
O2121     Ni2124   1.921   1_556  S
O2121      C2126   1.281       .  A
O2122      C2125   1.281       .  A
Ni2123    Ni2124   2.392       .  S
C2125      C2385   1.441       .  S
C2126      C2391   1.439       .  S
C2127      C2388   1.440       .  S
C2128      C2390   1.441       .  S
O2129     Ni2137   1.913   1_556  S
O2129      C2139   1.278       .  A
O2131      C2141   1.280       .  A
O2132     Ni2137   1.915   1_456  S
O2133     Ni2138   1.915   1_556  S
O2133      C2142   1.278       .  A
O2135      C2140   1.280       .  A
O2136     Ni2138   1.916   1_556  S
C2139      C2384   1.430       .  S
C2140      C2379   1.431       .  S
C2141      C2377   1.434       .  S
C2142      C2381   1.431       .  S
C2143      C2376   1.436       .  S
C2143      C2144   1.399       .  A
C2143      C2148   1.400       .  A
C2144      C2145   1.398       .  A
C2144      H2149   1.085       .  S
C2145      C2393   1.435       .  S
C2145      C2146   1.400       .  A
C2146      C2147   1.402       .  A
C2146      H2150   1.085       .  S
C2147      C2148   1.408       .  A
C2147      C2371   1.482       .  S
C2148      H2151   1.083       .  S
C2152      C2399   1.437       .  S
C2152      C2153   1.400       .  A
C2152      C2157   1.400       .  A
C2153      C2154   1.400       .  A
C2153      H2158   1.084       .  S
C2154      C2370   1.437       .  S
C2154      C2155   1.400       .  A
C2155      C2156   1.407       .  A
C2155      H2159   1.082       .  S
C2156      C2157   1.402       .  A
C2156      C2366   1.483       .  S
C2157      H2160   1.085       .  S
C2161      C2372   1.485       .  S
C2162      C2163   1.415       .  A
C2162      C2361   1.490       .  S
C2163      C2357   1.488       .  S
C2164      C2365   1.484       .  S
C2165      C2166   1.408       .  A
C2165      C2349   1.485       .  S
C2166      C2353   1.482       .  S
C2167      C2347   1.442       .  S
C2167      C2168   1.404       .  A
C2167      C2172   1.398       .  A
C2168      C2169   1.405       .  A
C2168      H2173   1.084       .  S
C2169      C2389   1.446       .  S
C2169      C2170   1.404       .  A
C2170      C2171   1.408       .  A
C2170      H2174   1.083       .  S
C2171      C2172   1.400       .  A
C2171      C2362   1.483       .  S
C2172      H2175   1.085       .  S
C2176      C2380   1.436       .  S
C2176      C2177   1.400       .  A
C2176      C2181   1.401       .  A
C2177      C2178   1.401       .  A
C2177      H2182   1.084       .  S
C2178      C2346   1.440       .  S
C2178      C2179   1.401       .  A
C2179      C2180   1.410       .  A
C2179      H2183   1.083       .  S
C2180      C2181   1.400       .  A
C2180      C2354   1.484       .  S
C2181      H2184   1.085       .  S
C2185      C2344   1.443       .  S
C2185      C2186   1.405       .  A
C2185      C2190   1.399       .  A
C2186      C2187   1.406       .  A
C2186      H2191   1.084       .  S
C2187      C2386   1.446       .  S
C2187      C2188   1.402       .  A
C2188      C2189   1.409       .  A
C2188      H2192   1.082       .  S
C2189      C2190   1.400       .  A
C2189      C2350   1.485       .  S
C2190      H2193   1.085       .  S
C2194      C2378   1.440       .  S
C2194      C2195   1.402       .  A
C2194      C2199   1.402       .  A
C2195      C2196   1.408       .  A
C2195      H2200   1.082       .  S
C2196      C2197   1.402       .  A
C2196      C2358   1.484       .  S
C2197      C2198   1.399       .  A
C2197      H2201   1.085       .  S
C2198      C2341   1.439       .  S
C2198      C2199   1.401       .  A
C2199      H2202   1.084       .  S
C2203      C2339   1.439       .  S
C2203      C2204   1.400       .  A
C2203      C2208   1.402       .  A
C2204      C2205   1.399       .  A
C2204      H2209   1.084       .  S
C2205      C2396   1.432       .  S
C2205      C2206   1.397       .  A
C2206      C2207   1.397       .  A
C2206      H2210   1.085       .  S
C2207      C2208   1.410       .  A
C2207      C2335   1.482       .  S
C2208      H2211   1.083       .  S
C2212      C2397   1.432       .  S
C2212      C2213   1.398       .  A
C2212      C2217   1.397       .  A
C2213      C2214   1.400       .  A
C2213      H2218   1.085       .  S
C2214      C2333   1.438       .  S
C2214      C2215   1.403       .  A
C2215      C2216   1.409       .  A
C2215      H2219   1.083       .  S
C2216      C2217   1.399       .  A
C2216      C2329   1.481       .  S
C2217      H2220   1.085       .  S
C2221      C2336   1.479       .  S
C2222      C2223   1.414       .  A
C2222      C2325   1.485       .  S
C2223      C2321   1.485       .  S
C2224      C2330   1.484       .  S
C2225      C2226   1.407       .  A
C2225      C2313   1.487       .  S
C2226      C2317   1.480       .  S
C2227      C2312   1.443       .  S
C2227      C2228   1.405       .  A
C2227      C2232   1.400       .  A
C2228      C2229   1.405       .  A
C2228      H2233   1.084       .  S
C2229      C2387   1.444       .  S
C2229      C2230   1.401       .  A
C2230      C2231   1.408       .  A
C2230      H2234   1.082       .  S
C2231      C2232   1.401       .  A
C2231      C2314   1.485       .  S
C2232      H2235   1.085       .  S
C2236      C2382   1.436       .  S
C2236      C2237   1.398       .  A
C2236      C2241   1.401       .  A
C2237      C2238   1.398       .  A
C2237      H2242   1.085       .  S
C2238      C2239   1.410       .  A
C2238      C2318   1.484       .  S
C2239      C2240   1.402       .  A
C2239      H2243   1.082       .  S
C2240      C2309   1.442       .  S
C2240      C2241   1.402       .  A
C2241      H2244   1.084       .  S
C2245      C2307   1.445       .  S
C2245      C2246   1.402       .  A
C2245      C2250   1.406       .  A
C2246      C2247   1.407       .  A
C2246      H2251   1.083       .  S
C2247      C2248   1.400       .  A
C2247      C2326   1.483       .  S
C2248      C2249   1.399       .  A
C2248      H2252   1.085       .  S
C2249      C2392   1.443       .  S
C2249      C2250   1.405       .  A
C2250      H2253   1.084       .  S
C2254      C2383   1.435       .  S
C2254      C2255   1.398       .  A
C2254      C2259   1.400       .  A
C2255      C2256   1.399       .  A
C2255      H2260   1.085       .  S
C2256      C2257   1.409       .  A
C2256      C2322   1.481       .  S
C2257      C2258   1.403       .  A
C2257      H2261   1.083       .  S
C2258      C2306   1.440       .  S
C2258      C2259   1.402       .  A
C2259      H2262   1.084       .  S
O2263     Ni2271   1.923       .  S
O2263      C2273   1.280       .  A
O2264     Ni2271   1.921   1_545  S
O2265     Ni2271   1.919       .  S
O2265      C2275   1.279       .  A
O2266     Ni2271   1.918       .  S
O2267     Ni2272   1.923       .  S
O2267      C2276   1.280       .  A
O2268     Ni2272   1.920       .  S
O2269     Ni2272   1.922       .  S
O2269      C2274   1.280       .  A
O2270     Ni2272   1.922       .  S
C2273      C2308   1.441       .  S
C2274      C2343   1.439       .  S
C2275      C2348   1.438       .  S
C2276      C2311   1.438       .  S
O2277     Ni2285   1.916       .  S
O2278      C2288   1.280       .  A
O2280     Ni2285   1.914       .  S
O2280      C2290   1.279       .  A
O2281     Ni2286   1.915       .  S
O2282      C2289   1.280       .  A
O2284     Ni2286   1.914       .  S
O2284      C2287   1.279       .  A
C2287      C2375   1.430       .  S
C2288      C2334   1.433       .  S
C2289      C2340   1.434       .  S
C2290      C2369   1.431       .  S
O2291     Ni2299   1.920       .  S
O2291      C2301   1.280       .  A
O2292     Ni2299   1.920       .  S
O2292      C2302   1.280       .  A
O2293     Ni2299   1.919       .  S
O2293      C2303   1.280       .  A
O2294     Ni2299   1.919       .  S
O2294      C2304   1.279       .  A
O2295     Ni2300   1.916       .  S
O2295      C2304   1.280       .  A
O2296     Ni2300   1.919       .  S
O2296      C2303   1.280       .  A
O2297     Ni2300   1.916       .  S
O2297      C2302   1.279       .  A
O2298     Ni2300   1.916       .  S
O2298      C2301   1.279       .  A
Ni2299    Ni2300   2.394       .  S
C2301      C2345   1.435       .  S
C2302      C2305   1.435       .  S
C2303      C2310   1.437       .  S
C2304      C2342   1.434       .  S
C2305      C2306   1.206       .  T
C2307      C2308   1.209       .  T
C2309      C2310   1.207       .  T
C2311      C2312   1.208       .  T
C2313      C2314   1.343       .  D
C2313      H2315   1.083       .  S
C2314      H2316   1.087       .  S
C2317      C2318   1.339       .  D
C2317      H2319   1.084       .  S
C2318      H2320   1.087       .  S
C2321      C2322   1.341       .  D
C2321      H2323   1.085       .  S
C2322      H2324   1.087       .  S
C2325      C2326   1.342       .  D
C2325      H2327   1.084       .  S
C2326      H2328   1.087       .  S
C2329      C2330   1.340       .  D
C2329      H2331   1.087       .  S
C2330      H2332   1.085       .  S
C2333      C2334   1.205       .  T
C2335      C2336   1.337       .  D
C2335      H2337   1.087       .  S
C2336      H2338   1.085       .  S
C2339      C2340   1.205       .  T
C2341      C2342   1.205       .  T
C2343      C2344   1.208       .  T
C2345      C2346   1.206       .  T
C2347      C2348   1.207       .  T
C2349      C2350   1.342       .  D
C2349      H2351   1.083       .  S
C2350      H2352   1.087       .  S
C2353      C2354   1.340       .  D
C2353      H2355   1.085       .  S
C2354      H2356   1.087       .  S
C2357      C2358   1.345       .  D
C2357      H2359   1.084       .  S
C2358      H2360   1.087       .  S
C2361      C2362   1.344       .  D
C2361      H2363   1.084       .  S
C2362      H2364   1.087       .  S
C2365      C2366   1.344       .  D
C2365      H2367   1.084       .  S
C2366      H2368   1.087       .  S
C2369      C2370   1.204       .  T
C2371      C2372   1.343       .  D
C2371      H2373   1.087       .  S
C2372      H2374   1.085       .  S
C2375      C2376   1.203       .  T
C2377      C2378   1.206       .  T
C2379      C2380   1.204       .  T
C2381      C2382   1.203       .  T
C2383      C2384   1.203       .  T
C2385      C2386   1.210       .  T
C2387      C2388   1.209       .  T
C2389      C2390   1.209       .  T
C2391      C2392   1.208       .  T
C2393      C2394   1.203       .  T
C2395      C2396   1.201       .  T
C2397      C2398   1.201       .  T
C2399      C2400   1.204       .  T
