geometry optimzed in LAMMPS
_audit_creation_date              2020-11-30 
_audit_creation_method            'lammps2cif' 
_symmetry_space_group_name_H-M    'P1' 
_symmetry_Int_Tables_number       1 
_symmetry_cell_setting            triclinic 
loop_ 
_symmetry_equiv_pos_as_xyz 
  x,y,z 
_cell_length_a                    29.597956 
_cell_length_b                    30.9246940985266 
_cell_length_c                    55.8679477195328 
_cell_angle_alpha                 89.86468943761521 
_cell_angle_beta                  90.09749168432344 
_cell_angle_gamma                 88.64629969288758 
loop_ 
_atom_site_label 
_atom_site_type_symbol 
_atom_site_fract_x 
_atom_site_fract_y 
_atom_site_fract_z 
_atom_site_charge 
C1          C  0.50393697  0.45200271  0.76901873     0.86500
C2          C  0.46453107  0.45893524  0.75123475    -0.53700
C3          C  0.45874620  0.99779700  0.74018105     0.09400
C4          C  0.50149777  0.02378351  0.74527419     0.20400
C5          C  0.04593437  0.45681780  0.75340584    -0.54500
C6          C  0.04176704  0.99205534  0.74017148     0.09500
C7          C  0.50186529  0.49243944  0.78475567    -0.54000
C8          C  0.00199084  0.03001425  0.77229397     0.10100
H9          H  0.43761784  0.43655374  0.74831881     0.14600
H10         H  0.50288139  0.05480488  0.73530776     0.00400
H11         H  0.07102442  0.43091589  0.75169400     0.14900
H12         H  0.49919446  0.49101764  0.80413814     0.14700
O13         O  0.30216325  0.49558912  0.66221262    -0.71800
O14         O  0.20708977  0.50385304  0.61711688    -0.72000
O15         O  0.29707117  0.50490409  0.61495669    -0.71800
O16         O  0.21155386  0.49449747  0.66492838    -0.71800
O17         O  0.19953998  0.06068524  0.66681034    -0.71800
O18         O  0.29453879  0.07345295  0.62142516    -0.71800
O19         O  0.20396227  0.07192338  0.61902929    -0.71800
O20         O  0.29146582  0.06208156  0.66923222    -0.72000
V21         V  0.25431181  0.50112623  0.63996535     1.35200
V22         V  0.24737377  0.06578782  0.64415449     1.35200
C23         C  0.31110749  0.02599466  0.67348178     0.77500
C24         C  0.18935075  0.03843538  0.60887194     0.77500
C25         C  0.30987872  0.04094682  0.61006152     0.77400
C26         C  0.18725069  0.02343409  0.67313402     0.77400
O27         O  0.29459513  0.50961892  0.38369851    -0.71800
O28         O  0.21093961  0.50036029  0.33277565    -0.72000
O29         O  0.30093011  0.50177018  0.33625801    -0.71800
O30         O  0.20478472  0.50794979  0.38049090    -0.71800
O31         O  0.19975320  0.07808829  0.37795931    -0.71800
O32         O  0.29127080  0.07120857  0.33011568    -0.71800
O33         O  0.19988346  0.06935094  0.33016549    -0.71800
O34         O  0.29045062  0.08014849  0.37823013    -0.72000
V35         V  0.25270843  0.50631421  0.35820688     1.35200
V36         V  0.24544796  0.07347450  0.35410411     1.35200
C37         C  0.30456235  0.04715563  0.38971602     0.77500
C38         C  0.18867891  0.03239011  0.32292507     0.77500
C39         C  0.31089686  0.03530229  0.32575138     0.77400
C40         C  0.18406093  0.04399562  0.38698052     0.77400
O41         O  0.45737649  0.03640522  0.02468946    -0.71800
O42         O  0.46101761  0.44609806  0.97731833    -0.72000
O43         O  0.46179750  0.44740104  0.02525596    -0.71800
O44         O  0.45723727  0.03536587  0.97668408    -0.71800
O45         O  0.03035388  0.03261213  0.97625423    -0.71800
O46         O  0.03476747  0.44811403  0.02577396    -0.71800
O47         O  0.03414533  0.44450221  0.97770362    -0.71800
O48         O  0.03034269  0.03576965  0.02433750    -0.72000
V49         V  0.46204160  0.49007572  0.00091280     1.35200
V50         V  0.03237722  0.48969303  0.00066130     1.35200
C51         C  0.49398967  0.05143111  0.03240886     0.77500
C52         C  0.99757566  0.43033017  0.96939653     0.77500
C53         C  0.49873189  0.43320003  0.03392096     0.77400
C54         C  0.99362130  0.04827109  0.96804847     0.77400
O55         O  0.03281343  0.19942358  0.11316439    -0.71800
O56         O  0.03399108  0.28140051  0.16354372    -0.72000
O57         O  0.03420603  0.19450973  0.16079115    -0.71800
O58         O  0.03280930  0.28599818  0.11568524    -0.71800
O59         O  0.46008593  0.28512509  0.11477691    -0.71800
O60         O  0.46134762  0.19800993  0.16290980    -0.71800
O61         O  0.46116602  0.28526221  0.16277532    -0.71800
O62         O  0.46014878  0.19836442  0.11479509    -0.72000
V63         V  0.03201664  0.24040904  0.13836199     1.35200
V64         V  0.46204326  0.24168496  0.13886216     1.35200
C65         C  0.49665751  0.18421463  0.10563170     0.77500
C66         C  0.49802770  0.29825226  0.17134414     0.77500
C67         C  0.49831250  0.18014176  0.16932353     0.77400
C68         C  0.49656613  0.30052314  0.10712706     0.77400
C69         C  0.50112660  0.44884519  0.23422052     0.86500
C70         C  0.04225262  0.45644712  0.25051875    -0.53700
C71         C  0.03834700  0.99440413  0.26075774     0.09400
C72         C  0.49658029  0.02307196  0.25467321     0.20400
C73         C  0.46077135  0.45670184  0.25097971    -0.54500
C74         C  0.45546714  0.99563267  0.26073455     0.09500
C75         C  0.50022222  0.48723946  0.21682979    -0.54000
C76         C  0.49666581  0.02573063  0.22727319     0.10100
H77         H  0.06831522  0.43226164  0.25414414     0.14600
H78         H  0.49596211  0.05543319  0.26308567     0.00400
H79         H  0.43499228  0.43299080  0.25422751     0.14900
H80         H  0.50013508  0.48349690  0.19749173     0.14700
O81         O  0.46845619  0.28528990  0.83898034    -0.71800
O82         O  0.46410228  0.19737672  0.88617028    -0.72000
O83         O  0.46532413  0.28425222  0.88694720    -0.71800
O84         O  0.46787975  0.19844993  0.83819155    -0.71800
O85         O  0.04019169  0.19728528  0.83926169    -0.71800
O86         O  0.03798091  0.28031041  0.88908104    -0.71800
O87         O  0.03675786  0.19349056  0.88697103    -0.71800
O88         O  0.04087713  0.28466631  0.84120277    -0.72000
V89         V  0.46785692  0.24132367  0.86258270     1.35200
V90         V  0.03754273  0.23901723  0.86407116     1.35200
C91         C  0.00473553  0.30061299  0.83236589     0.77500
C92         C  0.99934381  0.17990818  0.89447801     0.77500
C93         C  0.00119983  0.29690819  0.89648609     0.77400
C94         C  0.00396238  0.18282784  0.83075416     0.77400
O95         O  0.04413303  0.08582073  0.52245717    -0.71800
O96         O  0.44956194  0.08730502  0.47580085    -0.72000
O97         O  0.45346711  0.08580639  0.52436536    -0.71800
O98         O  0.04013738  0.08721297  0.47397253    -0.71800
O99         O  0.04146513  0.01708266  0.47368006    -0.71800
O100        O  0.45592975  0.01573085  0.52359116    -0.71800
O101        O  0.45171969  0.01721609  0.47566136    -0.71800
O102        O  0.04570843  0.01571495  0.52164572    -0.72000
V103        V  0.49688840  0.08535488  0.49909595     1.35200
V104        V  0.49867942  0.01796523  0.49860473     1.35200
C105        C  0.06055272  0.05033492  0.53030417     0.77500
C106        C  0.43508632  0.05219220  0.46743421     0.77500
C107        C  0.44036103  0.05017644  0.53282176     0.77400
C108        C  0.05503909  0.05216101  0.46495520     0.77400
C109        C  0.49843249  0.33358787  0.18923993    -0.05400
C110        C  0.45984602  0.36026458  0.19201123    -0.32900
C111        C  0.46019994  0.39637921  0.20704409     0.36400
C112        C  0.49941908  0.40623950  0.22034340    -0.05800
C113        C  0.03741677  0.37848585  0.21792536    -0.32800
C114        C  0.03718363  0.34295276  0.20244228     0.36300
H115        H  0.42960029  0.35425490  0.18170502     0.16600
O116        O  0.42280008  0.42348206  0.20744215    -0.60300
H117        H  0.06883716  0.38487742  0.22684619     0.16700
O118        O  0.07575317  0.31779152  0.20027099    -0.60400
H119        H  0.09488741  0.33327495  0.18866034     0.43700
H120        H  0.39955849  0.40765528  0.21650433     0.43600
C121        C  0.49926002  0.14205804  0.18524625    -0.05400
C122        C  0.46707313  0.13800705  0.20349908    -0.32900
C123        C  0.46671296  0.10082960  0.21793750     0.36400
C124        C  0.49801522  0.06672525  0.21367472    -0.05800
C125        C  0.02985855  0.07100588  0.19532619    -0.32800
C126        C  0.03067810  0.10826241  0.18123090     0.36300
H127        H  0.44211786  0.16360582  0.20651422     0.16600
O128        O  0.43403102  0.09701589  0.23514172    -0.60300
H129        H  0.05416527  0.04502747  0.19184918     0.16700
O130        O  0.06168260  0.11048972  0.16306311    -0.60400
H131        H  0.04599407  0.09942919  0.14871527     0.43700
H132        H  0.44395307  0.11540349  0.24860737     0.43600
C133        C  0.99379294  0.08089615  0.94864025    -0.05400
C134        C  0.03278673  0.08522372  0.93463148    -0.32900
C135        C  0.03461010  0.11639695  0.91651957     0.36400
C136        C  0.99738700  0.14476388  0.91245291    -0.05800
C137        C  0.45834334  0.13979799  0.92586521    -0.32800
C138        C  0.45623187  0.10826392  0.94381113     0.36300
H139        H  0.06199990  0.06409465  0.93757991     0.16600
O140        O  0.07290418  0.11855153  0.90282224    -0.60300
H141        H  0.42916300  0.16094400  0.92286403     0.16700
O142        O  0.41720643  0.10495102  0.95682863    -0.60400
H143        H  0.42121462  0.12415512  0.97084482     0.43700
H144        H  0.06662925  0.10089828  0.88843353     0.43600
C145        C  0.99793707  0.39591782  0.95092203    -0.05400
C146        C  0.03916427  0.37611896  0.94417799    -0.32900
C147        C  0.04084078  0.34392748  0.92661734     0.36400
C148        C  0.00069169  0.33055828  0.91541785    -0.05800
C149        C  0.45972268  0.35002400  0.92223457    -0.32800
C150        C  0.45801127  0.38218852  0.93981960     0.36300
H151        H  0.07047716  0.38561195  0.95251098     0.16600
O152        O  0.08197851  0.32549094  0.92082942    -0.60300
H153        H  0.42843011  0.34048299  0.91390635     0.16700
O154        O  0.41692450  0.40081096  0.94551938    -0.60400
H155        H  0.40374837  0.38132065  0.95762960     0.43700
H156        H  0.09499499  0.34507460  0.90871443     0.43600
C157        C  0.49881751  0.39970187  0.05289338    -0.05400
C158        C  0.45929107  0.37653917  0.05700876    -0.32900
C159        C  0.45800239  0.34422684  0.07450177     0.36400
C160        C  0.49660896  0.33470737  0.08854226    -0.05800
C161        C  0.03557578  0.35812410  0.08450877    -0.32800
C162        C  0.03690819  0.39044968  0.06697730     0.36300
H163        H  0.42923171  0.38302050  0.04637518     0.16600
O164        O  0.41887768  0.32194155  0.07747631    -0.60300
H165        H  0.06560114  0.35154275  0.09515377     0.16700
O166        O  0.07603633  0.41269563  0.06393317    -0.60400
H167        H  0.07361477  0.43744372  0.07515413     0.43700
H168        H  0.42187915  0.29660767  0.06669041     0.43600
C169        C  0.49641417  0.15082163  0.08659030    -0.05400
C170        C  0.45570915  0.14106192  0.07503398    -0.32900
C171        C  0.45441288  0.10941440  0.05715728     0.36400
C172        C  0.49420760  0.08619925  0.05071186    -0.05800
C173        C  0.03447438  0.09624278  0.06225265    -0.32800
C174        C  0.03579152  0.12808429  0.07996808     0.36300
H175        H  0.42466672  0.15825979  0.07971869     0.16600
O176        O  0.41397970  0.10161441  0.04614290    -0.60300
H177        H  0.06556401  0.07905075  0.05765793     0.16700
O178        O  0.07638016  0.13636896  0.09070259    -0.60400
H179        H  0.07797445  0.11689158  0.10482426     0.43700
H180        H  0.41336767  0.12055690  0.03177511     0.43600
C181        C  0.40058368  0.05148952  0.44804117    -0.05400
C182        C  0.38365445  0.09029064  0.43784885    -0.32900
C183        C  0.35238701  0.08982245  0.41887519     0.36400
C184        C  0.33758810  0.05005538  0.40968484    -0.05800
C185        C  0.35438555  0.01151197  0.42002159    -0.32800
C186        C  0.38550535  0.01188409  0.43878156     0.36300
H187        H  0.39485701  0.12114594  0.44447250     0.16600
O188        O  0.33698114  0.12838358  0.40939754    -0.60300
H189        H  0.34366419  0.98046511  0.41343404     0.16700
O190        O  0.40072775  0.97298192  0.44792586    -0.60400
H191        H  0.42637573  0.96399906  0.43755017     0.43700
H192        H  0.31009886  0.13661390  0.41906717     0.43600
C193        C  0.08720526  0.05122307  0.44460117    -0.05400
C194        C  0.10392147  0.01099779  0.43644801    -0.32900
C195        C  0.13454981  0.00812157  0.41751952     0.36400
C196        C  0.14924361  0.04600501  0.40606441    -0.05800
C197        C  0.13177596  0.08628106  0.41381217    -0.32800
C198        C  0.10111069  0.08911851  0.43289207     0.36300
H199        H  0.10175458  0.48058544  0.44679996     0.16600
O200        O  0.15926855  0.46779586  0.41295543    -0.60300
H201        H  0.14222935  0.11584792  0.40522978     0.16700
O202        O  0.08458118  0.12904489  0.43963607    -0.60400
H203        H  0.10682444  0.13989062  0.45134477     0.43700
H204        H  0.18555032  0.46250403  0.42372230     0.43600
C205        C  0.41890352  0.01012705  0.27694897    -0.05400
C206        C  0.43166090  0.51961457  0.30146856    -0.32900
C207        C  0.39276513  0.02376208  0.31749853     0.36400
C208        C  0.34865833  0.03158188  0.30889593    -0.05800
C209        C  0.34006045  0.02969415  0.28425268    -0.32800
C210        C  0.37491058  0.01867966  0.26826796     0.36300
H211        H  0.46567632  0.51619205  0.30831620     0.16600
O212        O  0.40582553  0.53642145  0.34100154    -0.60300
H213        H  0.30599729  0.03495909  0.27753545     0.16700
O214        O  0.36569063  0.01592625  0.24425986    -0.60400
H215        H  0.35416520  0.98637762  0.24188783     0.43700
H216        H  0.40935590  0.56806712  0.34272266     0.43600
C217        C  0.15234939  0.02743207  0.30521713    -0.05400
C218        C  0.10988142  0.04653814  0.30964000    -0.32900
C219        C  0.07238502  0.03657474  0.29543378     0.36400
C220        C  0.07752467  0.00809036  0.27578970    -0.05800
C221        C  0.12123347  0.99147164  0.27057075    -0.32800
C222        C  0.15817563  0.00047264  0.28524387     0.36300
H223        H  0.10512141  0.06736567  0.32505385     0.16600
O224        O  0.03087611  0.05381332  0.30149376    -0.60300
H225        H  0.12699790  0.97102192  0.25512255     0.16700
O226        O  0.19978694  0.98243566  0.28002795    -0.60400
H227        H  0.21551783  0.00476644  0.27064762     0.43700
H228        H  0.02478042  0.04346025  0.31796419     0.43600
C229        C  0.09503693  0.04846788  0.54970654    -0.05400
C230        C  0.10973597  0.00784306  0.55841185    -0.32900
C231        C  0.13978789  0.00415210  0.57766299     0.36400
C232        C  0.15651745  0.04158335  0.58869920    -0.05800
C233        C  0.14249317  0.08232044  0.57976064    -0.32800
C234        C  0.11200359  0.08597827  0.56053240     0.36300
H235        H  0.09742520  0.97841894  0.55048768     0.16600
O236        O  0.15272634  0.96354783  0.58533761    -0.60300
H237        H  0.15515596  0.11159269  0.58768751     0.16700
O238        O  0.09945654  0.12638828  0.55241304    -0.60400
H239        H  0.07312434  0.13527595  0.56237021     0.43700
H240        H  0.12967365  0.95543014  0.59730357     0.43600
C241        C  0.40791349  0.04826252  0.55306907    -0.05400
C242        C  0.39026175  0.08650543  0.56340136    -0.32900
C243        C  0.35913743  0.08502389  0.58233639     0.36400
C244        C  0.34474243  0.04477684  0.59112792    -0.05800
C245        C  0.36326371  0.00674754  0.58113570    -0.32800
C246        C  0.39431726  0.00812484  0.56241223     0.36300
H247        H  0.40038632  0.11773188  0.55673200     0.16600
O248        O  0.34221637  0.12309699  0.59158727    -0.60300
H249        H  0.35161810  0.47453737  0.58538490     0.16700
O250        O  0.40969749  0.46791482  0.55125990    -0.60400
H251        H  0.38690159  0.46067735  0.53895125     0.43700
H252        H  0.36403579  0.13126998  0.60419488     0.43600
C253        C  0.00524587  0.14686237  0.81329816    -0.05400
C254        C  0.04263290  0.11795580  0.81327165    -0.32900
C255        C  0.04269011  0.08070552  0.79913268     0.36400
C256        C  0.00536583  0.07217258  0.78441254    -0.05800
C257        C  0.47343719  0.10410341  0.78168881    -0.32800
C258        C  0.47293206  0.14117086  0.79612871     0.36300
H259        H  0.07110733  0.12319987  0.82504516     0.16600
O260        O  0.07861179  0.05193394  0.80052050    -0.60300
H261        H  0.44669774  0.09990820  0.76873690     0.16700
O262        O  0.43941541  0.17204874  0.79298118    -0.60400
H263        H  0.41317510  0.16135211  0.80207764     0.43700
H264        H  0.09760920  0.05831126  0.78639892     0.43600
C265        C  0.00460174  0.41060480  0.78431262    -0.05400
C266        C  0.46942183  0.38093982  0.78401729    -0.32900
C267        C  0.46964405  0.34491046  0.79921417     0.36400
C268        C  0.00539269  0.33698091  0.81503687    -0.05800
C269        C  0.04195436  0.36498535  0.81472567    -0.32800
C270        C  0.04149259  0.40169507  0.79992273     0.36300
H271        H  0.44021981  0.38537222  0.77272243     0.16600
O272        O  0.43403834  0.31732650  0.79826831    -0.60300
H273        H  0.07045928  0.35928517  0.82660838     0.16700
O274        O  0.07739787  0.42891641  0.80092099    -0.60400
H275        H  0.07246656  0.44657024  0.81552225     0.43500
H276        H  0.40993249  0.33126145  0.80808560     0.43600
C277        C  0.15065456  0.01771164  0.69071641    -0.05400
C278        C  0.16574784  0.49907244  0.71298502    -0.32900
C279        C  0.13124180  0.49104789  0.72948488     0.36400
C280        C  0.07996354  0.00138909  0.72350946    -0.05800
C281        C  0.07189801  0.02635985  0.70277414    -0.32800
C282        C  0.10685783  0.03479628  0.68657472     0.36300
H283        H  0.19968305  0.48679420  0.71660336     0.16600
O284        O  0.14218754  0.47040957  0.75055892    -0.60300
H285        H  0.03818255  0.03863916  0.69873497     0.16700
O286        O  0.09760279  0.05885164  0.66642129    -0.60400
H287        H  0.08991012  0.03751865  0.65392590     0.43700
H288        H  0.15123845  0.44043382  0.74604165     0.43600
C289        C  0.42433522  0.00862758  0.72165126    -0.05400
C290        C  0.39617065  0.04556880  0.72375445    -0.32900
C291        C  0.35914281  0.05213543  0.70820506     0.36400
C292        C  0.35010756  0.02151444  0.69019354    -0.05800
C293        C  0.37944199  0.98536985  0.68779299    -0.32800
C294        C  0.41623734  0.97899163  0.70315886     0.36300
H295        H  0.40170493  0.06839052  0.73804740     0.16600
O296        O  0.33141909  0.08783770  0.71124448    -0.60300
H297        H  0.37388567  0.96170707  0.67388711     0.16700
O298        O  0.44363615  0.94296121  0.70030357    -0.60400
H299        H  0.47002437  0.95301305  0.69110148     0.43700
H300        H  0.30686685  0.07814892  0.72191176     0.43600
C301        C  0.49744680  0.95125751  0.76947209     0.86500
C302        C  0.45666753  0.96018776  0.75287504    -0.53700
C303        C  0.46575621  0.49680431  0.73859327     0.09400
C304        C  0.50611722  0.52505961  0.74517092     0.20400
C305        C  0.03882631  0.95403546  0.75273084    -0.54500
C306        C  0.04813684  0.49523030  0.74117894     0.09500
C307        C  0.50002000  0.99177710  0.78508568    -0.54000
C308        C  0.00300299  0.53066719  0.77251307     0.10100
H309        H  0.42885754  0.93870084  0.75014845     0.14600
H310        H  0.50652388  0.55623638  0.73532247     0.00400
H311        H  0.06279136  0.92722828  0.75077950     0.14900
H312        H  0.50002996  0.99068197  0.80452912     0.14700
O313        O  0.29763730  0.99317725  0.66234630    -0.71800
O314        O  0.20422629  0.00203582  0.61609833    -0.72000
O315        O  0.29429523  0.00430459  0.61508128    -0.71800
O316        O  0.20684419  0.99081371  0.66388376    -0.71800
O317        O  0.20578403  0.56453069  0.66739197    -0.71800
O318        O  0.29814702  0.57429619  0.62032927    -0.71800
O319        O  0.20744334  0.57380683  0.61937939    -0.71800
O320        O  0.29810397  0.56483781  0.66816970    -0.72000
V321        V  0.25057645  0.99895873  0.63951738     1.35200
V322        V  0.25230516  0.56813628  0.64386750     1.35200
C323        C  0.31724958  0.52854924  0.67256293     0.77500
C324        C  0.19224134  0.54009396  0.60969124     0.77500
C325        C  0.31281999  0.54116462  0.60930384     0.77400
C326        C  0.19306741  0.52767915  0.67416923     0.77400
O327        O  0.28961783  0.01073511  0.38377246    -0.71800
O328        O  0.20777033  0.99935954  0.33211237    -0.72000
O329        O  0.29784508  0.00192574  0.33646594    -0.71800
O330        O  0.19985986  0.00804037  0.37974724    -0.71800
O331        O  0.20500468  0.57802409  0.37901299    -0.71800
O332        O  0.29551674  0.57137488  0.33075035    -0.71800
O333        O  0.20413793  0.57046541  0.33114989    -0.71800
O334        O  0.29555728  0.57919232  0.37877083    -0.72000
V335        V  0.24867135  0.00639268  0.35790570     1.35200
V336        V  0.25012189  0.57352545  0.35489637     1.35200
C337        C  0.30980125  0.54582033  0.38983868     0.77500
C338        C  0.19236998  0.53379230  0.32375458     0.77500
C339        C  0.31431403  0.53531799  0.32587241     0.77400
C340        C  0.18949658  0.54386136  0.38802356     0.77400
O341        O  0.46027044  0.53425870  0.02442330    -0.71800
O342        O  0.45750192  0.94862454  0.97724239    -0.72000
O343        O  0.45759935  0.94939869  0.02526373    -0.71800
O344        O  0.45926189  0.53272861  0.97658587    -0.71800
O345        O  0.03266045  0.53116796  0.97552167    -0.71800
O346        O  0.03079790  0.94899930  0.02602638    -0.71800
O347        O  0.03081925  0.94602446  0.97800455    -0.71800
O348        O  0.03342652  0.53493064  0.02358147    -0.72000
V349        V  0.45884566  0.99241202  0.00099293     1.35200
V350        V  0.02916469  0.99090853  0.00117420     1.35200
C351        C  0.49672722  0.55007764  0.03180821     0.77500
C352        C  0.99423339  0.93213554  0.96956240     0.77500
C353        C  0.49432505  0.93451888  0.03389756     0.77400
C354        C  0.99553158  0.54660373  0.96766163     0.77400
O355        O  0.03283126  0.69940209  0.11224607    -0.71800
O356        O  0.03095845  0.78099961  0.16288357    -0.72000
O357        O  0.03370385  0.69413646  0.15987751    -0.71800
O358        O  0.03033641  0.78597414  0.11499300    -0.71800
O359        O  0.45736028  0.78355281  0.11363100    -0.71800
O360        O  0.46057633  0.69611176  0.16160177    -0.71800
O361        O  0.45785420  0.78340196  0.16163503    -0.71800
O362        O  0.45986996  0.69679523  0.11349739    -0.72000
V363        V  0.03052419  0.74018149  0.13755456     1.35200
V364        V  0.46027775  0.73996595  0.13763862     1.35200
C365        C  0.49680292  0.68360801  0.10440759     0.77500
C366        C  0.49422514  0.79708486  0.17042267     0.77500
C367        C  0.49791591  0.67915425  0.16814981     0.77400
C368        C  0.49347208  0.79997087  0.10617558     0.77400
C369        C  0.49645038  0.94767530  0.23343344     0.86500
C370        C  0.03753686  0.95468131  0.24991555    -0.53700
C371        C  0.04270671  0.49645375  0.26117245     0.09400
C372        C  0.50018398  0.52461697  0.25499827     0.20400
C373        C  0.45555228  0.95621812  0.24980893    -0.54500
C374        C  0.45988243  0.49638225  0.26155835     0.09500
C375        C  0.49696464  0.98646035  0.21625927    -0.54000
C376        C  0.49952505  0.52666176  0.22759088     0.10100
H377        H  0.06365900  0.93056050  0.25345792     0.14600
H378        H  0.49879436  0.55723062  0.26305568     0.00400
H379        H  0.42895420  0.93314297  0.25257648     0.14900
H380        H  0.49730495  0.98308487  0.19690296     0.14700
O381        O  0.45984420  0.78490986  0.84005447    -0.71800
O382        O  0.45864611  0.69827585  0.88825742    -0.72000
O383        O  0.45980232  0.78521910  0.88801021    -0.71800
O384        O  0.45856447  0.69790630  0.84045631    -0.71800
O385        O  0.03248204  0.69832563  0.83876722    -0.71800
O386        O  0.03356891  0.78021296  0.88954215    -0.71800
O387        O  0.03242465  0.69323225  0.88662540    -0.71800
O388        O  0.03382029  0.78534071  0.84168016    -0.72000
V389        V  0.46061450  0.74157901  0.86416306     1.35200
V390        V  0.03170323  0.73933717  0.86415172     1.35200
C391        C  0.99736629  0.80085080  0.83308193     0.77500
C392        C  0.99563327  0.68019267  0.89517704     0.77500
C393        C  0.99716805  0.79758092  0.89709313     0.77400
C394        C  0.99555231  0.68302804  0.83163257     0.77400
O395        O  0.04751960  0.58462498  0.52278991    -0.71800
O396        O  0.45428504  0.58512351  0.47576475    -0.72000
O397        O  0.45711621  0.58376642  0.52418757    -0.71800
O398        O  0.04454236  0.58579810  0.47439431    -0.71800
O399        O  0.04671683  0.51565199  0.47418493    -0.71800
O400        O  0.46017392  0.51366874  0.52353796    -0.71800
O401        O  0.45717982  0.51502388  0.47559061    -0.71800
O402        O  0.04988698  0.51450701  0.52214663    -0.72000
V403        V  0.50101537  0.58373118  0.49929296     1.35200
V404        V  0.50355258  0.51632496  0.49887178     1.35200
C405        C  0.06413264  0.54937768  0.53080917     0.77500
C406        C  0.44036796  0.54988801  0.46731357     0.77500
C407        C  0.44403535  0.54807939  0.53253710     0.77400
C408        C  0.06010635  0.55088108  0.46556833     0.77400
C409        C  0.49356368  0.83217761  0.18845370    -0.05400
C410        C  0.45625860  0.86090095  0.18960037    -0.32900
C411        C  0.45648773  0.89701641  0.20469347     0.36400
C412        C  0.49436552  0.90507389  0.21943183    -0.05800
C413        C  0.03091065  0.87506981  0.21878223    -0.32800
C414        C  0.03076610  0.83929479  0.20347312     0.36300
H415        H  0.42735907  0.85642198  0.17801054     0.16600
O416        O  0.42044142  0.92573224  0.20387136    -0.60300
H417        H  0.06106776  0.87927559  0.22920444     0.16700
O418        O  0.06753762  0.81142799  0.20334124    -0.60400
H419        H  0.09025037  0.82556638  0.19311576     0.43700
H420        H  0.39587436  0.91156190  0.21279627     0.43600
C421        C  0.49966510  0.64149319  0.18437880    -0.05400
C422        C  0.46695476  0.63699122  0.20233818    -0.32900
C423        C  0.46741091  0.60036272  0.21719235     0.36400
C424        C  0.50012107  0.56725318  0.21366701    -0.05800
C425        C  0.03263039  0.57167087  0.19573062    -0.32800
C426        C  0.03257466  0.60839398  0.18118783     0.36300
H427        H  0.44096112  0.66182967  0.20480772     0.16600
O428        O  0.43424446  0.59600972  0.23408564    -0.60300
H429        H  0.05786794  0.54629091  0.19275863     0.16700
O430        O  0.06405331  0.61094661  0.16326793    -0.60400
H431        H  0.04949877  0.59823802  0.14901292     0.43700
H432        H  0.44362006  0.61425270  0.24772570     0.43600
C433        C  0.99448327  0.57978397  0.94858981    -0.05400
C434        C  0.03177168  0.58364235  0.93332073    -0.32900
C435        C  0.03208466  0.61534649  0.91543804     0.36400
C436        C  0.99513097  0.64468222  0.91294471    -0.05800
C437        C  0.45685539  0.63974257  0.92778243    -0.32800
C438        C  0.45641137  0.60769078  0.94547353     0.36300
H439        H  0.06068087  0.56169909  0.93507438     0.16600
O440        O  0.06857116  0.61703864  0.90039267    -0.60300
H441        H  0.42785814  0.66158053  0.92605947     0.16700
O442        O  0.41917000  0.60483473  0.95992567    -0.60400
H443        H  0.42613692  0.62244622  0.97423911     0.43700
H444        H  0.06023544  0.59945644  0.88628923     0.43600
C445        C  0.99455854  0.89767532  0.95105792    -0.05400
C446        C  0.03578513  0.87796695  0.94414727    -0.32900
C447        C  0.03733830  0.84551307  0.92668764     0.36400
C448        C  0.99709087  0.83168516  0.91582233    -0.05800
C449        C  0.45542968  0.85147048  0.92267685    -0.32800
C450        C  0.45401622  0.88411740  0.93999794     0.36300
H451        H  0.06718504  0.88774079  0.95227221     0.16600
O452        O  0.07844934  0.82734336  0.92063531    -0.60300
H453        H  0.42396746  0.84188614  0.91454609     0.16700
O454        O  0.41306012  0.90310237  0.94562362    -0.60400
H455        H  0.39995971  0.88414814  0.95802113     0.43700
H456        H  0.09042706  0.84632668  0.90792671     0.43600
C457        C  0.49431551  0.90067029  0.05270221    -0.05400
C458        C  0.45449025  0.87827495  0.05732421    -0.32900
C459        C  0.45358940  0.84539087  0.07455170     0.36400
C460        C  0.49290065  0.83458427  0.08779608    -0.05800
C461        C  0.03248100  0.85714480  0.08344168    -0.32800
C462        C  0.03343189  0.88993836  0.06620312     0.36300
H463        H  0.42393103  0.88579209  0.04729572     0.16600
O464        O  0.41411575  0.82394421  0.07810732    -0.60300
H465        H  0.06306362  0.84966974  0.09346119     0.16700
O466        O  0.07295602  0.91131426  0.06266403    -0.60400
H467        H  0.07125512  0.93653257  0.07358914     0.43700
H468        H  0.41531100  0.79936831  0.06673122     0.43600
C469        C  0.49748003  0.65031950  0.08535243    -0.05400
C470        C  0.45727933  0.64071684  0.07328153    -0.32900
C471        C  0.45661390  0.60884151  0.05555188     0.36400
C472        C  0.49653007  0.58525719  0.04979244    -0.05800
C473        C  0.03676578  0.59540750  0.06165939    -0.32800
C474        C  0.03746509  0.62738599  0.07931932     0.36300
H475        H  0.42613192  0.65816556  0.07748084     0.16600
O476        O  0.41667351  0.60115932  0.04400792    -0.60300
H477        H  0.06792984  0.57797698  0.05747724     0.16700
O478        O  0.07756872  0.63554046  0.09058788    -0.60400
H479        H  0.07842091  0.61607380  0.10472347     0.43700
H480        H  0.41706099  0.61966457  0.02947266     0.43600
C481        C  0.40621733  0.54913535  0.44781679    -0.05400
C482        C  0.38817847  0.58805040  0.43832452    -0.32900
C483        C  0.35687973  0.58784318  0.41942196     0.36400
C484        C  0.34317834  0.54822281  0.40958697    -0.05800
C485        C  0.36122049  0.50950731  0.41913044    -0.32800
C486        C  0.39241717  0.50964278  0.43785787     0.36300
H487        H  0.39840137  0.61883015  0.44550673     0.16600
O488        O  0.34018549  0.62654321  0.41072137    -0.60300
H489        H  0.35136616  0.47859453  0.41196523     0.16700
O490        O  0.40895410  0.47067674  0.44628183    -0.60400
H491        H  0.43504175  0.46327055  0.43585643     0.43700
H492        H  0.31312311  0.63334440  0.42056312     0.43600
C493        C  0.09286796  0.55030558  0.44557212    -0.05400
C494        C  0.11115400  0.51032390  0.43802472    -0.32900
C495        C  0.14213609  0.50774427  0.41929878     0.36400
C496        C  0.15531462  0.54565617  0.40734045    -0.05800
C497        C  0.13669699  0.58571951  0.41466367    -0.32800
C498        C  0.10584569  0.58828717  0.43363608     0.36300
H499        H  0.09353886  0.98127350  0.44489436     0.16600
O500        O  0.14974466  0.96790766  0.41043443    -0.60300
H501        H  0.14622285  0.61528991  0.40576157     0.16700
O502        O  0.08811948  0.62797641  0.43999859    -0.60400
H503        H  0.10979393  0.63963172  0.45175946     0.43700
H504        H  0.17546108  0.96059677  0.42125747     0.43600
C505        C  0.42264749  0.51059331  0.27741020    -0.05400
C506        C  0.42754303  0.01299276  0.30152413    -0.32900
C507        C  0.39646169  0.53015638  0.31721836     0.36400
C508        C  0.35165037  0.53166327  0.30887372    -0.05800
C509        C  0.34250316  0.52322536  0.28476673    -0.32800
C510        C  0.37773905  0.51244152  0.26903530     0.36300
H511        H  0.46080322  0.00487368  0.30843429     0.16600
O512        O  0.40169513  0.02469115  0.34159360    -0.60300
H513        H  0.30791725  0.52344450  0.27836336     0.16700
O514        O  0.36807411  0.50350364  0.24556336    -0.60400
H515        H  0.35766151  0.47324810  0.24554556     0.43700
H516        H  0.41014441  0.05490750  0.34497287     0.43600
C517        C  0.15643917  0.52953121  0.30580109    -0.05400
C518        C  0.11460157  0.55036771  0.30946104    -0.32900
C519        C  0.07717646  0.54078656  0.29509456     0.36400
C520        C  0.08188252  0.51074766  0.27608553    -0.05800
C521        C  0.12532131  0.49290933  0.27142961    -0.32800
C522        C  0.16205069  0.50158326  0.28625754     0.36300
H523        H  0.11015754  0.57228382  0.32443335     0.16600
O524        O  0.03626594  0.56020000  0.30031340    -0.60300
H525        H  0.13108937  0.47162801  0.25633726     0.16700
O526        O  0.20326120  0.48215061  0.28164863    -0.60400
H527        H  0.22012266  0.50373336  0.27229580     0.43700
H528        H  0.02986119  0.55293285  0.31725645     0.43600
C529        C  0.09813680  0.54816180  0.55041922    -0.05400
C530        C  0.11269486  0.50785064  0.55957484    -0.32900
C531        C  0.14245501  0.50482673  0.57896376     0.36400
C532        C  0.15904983  0.54264446  0.58967658    -0.05800
C533        C  0.14500674  0.58307207  0.58035020    -0.32800
C534        C  0.11480156  0.58605668  0.56097525     0.36300
H535        H  0.10056121  0.47816364  0.55187288     0.16600
O536        O  0.15539308  0.46446870  0.58702691    -0.60300
H537        H  0.15757153  0.61260376  0.58802082     0.16700
O538        O  0.10238474  0.62618110  0.55238088    -0.60400
H539        H  0.07603196  0.63550414  0.56220877     0.43700
H540        H  0.13227301  0.45668424  0.59902757     0.43600
C541        C  0.41097921  0.54634109  0.55241901    -0.05400
C542        C  0.39541896  0.58475525  0.56336692    -0.32900
C543        C  0.36413155  0.58383362  0.58216586     0.36400
C544        C  0.34730107  0.54399492  0.59016507    -0.05800
C545        C  0.36346756  0.50565127  0.57944275    -0.32800
C546        C  0.39485106  0.50648883  0.56084933     0.36300
H547        H  0.40756022  0.61573731  0.55739554     0.16600
O548        O  0.34977514  0.62214376  0.59222637    -0.60300
H549        H  0.35342826  0.97536538  0.58771899     0.16700
O550        O  0.41141944  0.96973857  0.55361390    -0.60400
H551        H  0.38832373  0.95959407  0.54216422     0.43700
H552        H  0.37263519  0.62853173  0.60465177     0.43600
C553        C  0.99483578  0.64677173  0.81441730    -0.05400
C554        C  0.02951448  0.64131040  0.79742901    -0.32900
C555        C  0.03113704  0.60483258  0.78248765     0.36400
C556        C  0.99861836  0.57269842  0.78500145    -0.05800
C557        C  0.46320777  0.57835821  0.80160860    -0.32800
C558        C  0.46092658  0.61492186  0.81619048     0.36300
H559        H  0.05575638  0.66501187  0.79599209     0.16600
O560        O  0.06626586  0.59945820  0.76671854    -0.60300
H561        H  0.43810130  0.55370008  0.80376668     0.16700
O562        O  0.42714815  0.61825136  0.83292213    -0.60400
H563        H  0.43957653  0.60386256  0.84747789     0.43700
H564        H  0.05701552  0.61609321  0.75225581     0.43600
C565        C  0.99794503  0.91050369  0.78497087    -0.05400
C566        C  0.45990120  0.88274726  0.78584172    -0.32900
C567        C  0.45942615  0.84692945  0.80116822     0.36400
C568        C  0.99778827  0.83725772  0.81584033    -0.05800
C569        C  0.03541162  0.86393625  0.81479541    -0.32800
C570        C  0.03548751  0.90042475  0.79989472     0.36300
H571        H  0.42977325  0.88891805  0.77548090     0.16600
O572        O  0.42202557  0.82154612  0.80143860    -0.60300
H573        H  0.06452261  0.85730116  0.82612310     0.16700
O574        O  0.07257276  0.92624822  0.80010368    -0.60400
H575        H  0.06948078  0.94406117  0.81477361     0.43500
H576        H  0.40021104  0.83660933  0.81219365     0.43600
C577        C  0.15695880  0.52291224  0.69210506    -0.05400
C578        C  0.15907042  0.99322793  0.71141232    -0.32900
C579        C  0.12452087  0.98560135  0.72795489     0.36400
C580        C  0.08643005  0.50587701  0.72484897    -0.05800
C581        C  0.07805957  0.53051437  0.70401485    -0.32800
C582        C  0.11293187  0.53926367  0.68782505     0.36300
H583        H  0.19285079  0.98048140  0.71496997     0.16600
O584        O  0.13531542  0.96475715  0.74898831    -0.60300
H585        H  0.04414602  0.54201123  0.69978930     0.16700
O586        O  0.10331138  0.56260253  0.66745940    -0.60400
H587        H  0.09646902  0.54077042  0.65508236     0.43700
H588        H  0.14356145  0.93460319  0.74444083     0.43600
C589        C  0.43124518  0.50772135  0.72000179    -0.05400
C590        C  0.40907918  0.54842871  0.71954675    -0.32900
C591        C  0.37227615  0.55650370  0.70397358     0.36400
C592        C  0.35716930  0.52345473  0.68868332    -0.05800
C593        C  0.38130212  0.48375837  0.68839654    -0.32800
C594        C  0.41806517  0.47599676  0.70353988     0.36300
H595        H  0.41920885  0.57343326  0.73186044     0.16600
O596        O  0.35118455  0.59645150  0.70409801    -0.60300
H597        H  0.37169551  0.45819908  0.67631423     0.16700
O598        O  0.44072516  0.43685481  0.70221817    -0.60400
H599        H  0.46690282  0.44192703  0.69160655     0.43700
H600        H  0.32744850  0.59462375  0.71654642     0.43600
C601        C  0.00372034  0.45210897  0.76908774     0.86500
C602        C  0.96429868  0.45917084  0.75133199    -0.53700
C603        C  0.95914383  0.99743159  0.73985836     0.09400
C604        C  0.00156533  0.02383953  0.74499710     0.20400
C605        C  0.54618222  0.45690652  0.75339791    -0.54500
C606        C  0.54135193  0.99174664  0.74013803     0.09500
C607        C  0.00190548  0.49257739  0.78480828    -0.54000
C608        C  0.50241204  0.02954454  0.77261461     0.10100
H609        H  0.93735860  0.43682283  0.74839854     0.14600
H610        H  0.00280180  0.05474689  0.73491226     0.00400
H611        H  0.57141248  0.43111953  0.75171732     0.14900
H612        H  0.99928834  0.49120489  0.80419402     0.14700
O613        O  0.80213296  0.49582196  0.66229166    -0.71800
O614        O  0.70707414  0.50409216  0.61719123    -0.72000
O615        O  0.79704076  0.50502877  0.61504190    -0.71800
O616        O  0.71153769  0.49480839  0.66500441    -0.71800
O617        O  0.69929207  0.06062536  0.66684329    -0.71800
O618        O  0.79425390  0.07342171  0.62140705    -0.71800
O619        O  0.70367316  0.07196126  0.61906241    -0.71800
O620        O  0.79132520  0.06197109  0.66919704    -0.72000
V621        V  0.75428782  0.50135426  0.64004392     1.35200
V622        V  0.74712451  0.06574633  0.64416282     1.35200
C623        C  0.81083567  0.02582539  0.67346698     0.77500
C624        C  0.68917411  0.03850717  0.60882389     0.77500
C625        C  0.80966314  0.04089850  0.61008153     0.77400
C626        C  0.68682733  0.02336557  0.67306192     0.77400
O627        O  0.79458487  0.50990795  0.38350581    -0.71800
O628        O  0.71083067  0.50103102  0.33262015    -0.72000
O629        O  0.80081224  0.50231551  0.33605455    -0.71800
O630        O  0.70477054  0.50839448  0.38035068    -0.71800
O631        O  0.69996683  0.07826609  0.37796867    -0.71800
O632        O  0.79133551  0.07151727  0.33003995    -0.71800
O633        O  0.69993427  0.06961827  0.33016913    -0.71800
O634        O  0.79067195  0.08033927  0.37817328    -0.72000
V635        V  0.75264322  0.50680697  0.35803371     1.35200
V636        V  0.74558803  0.07371600  0.35407315     1.35200
C637        C  0.80476488  0.04732450  0.38965185     0.77500
C638        C  0.68876886  0.03265738  0.32290337     0.77500
C639        C  0.81100510  0.03563458  0.32566916     0.77400
C640        C  0.68426560  0.04414974  0.38695724     0.77400
O641        O  0.95706202  0.03621429  0.02482085    -0.71800
O642        O  0.96086391  0.44642798  0.97724658    -0.72000
O643        O  0.96148213  0.44757069  0.02518524    -0.71800
O644        O  0.95703362  0.03520746  0.97681342    -0.71800
O645        O  0.53055546  0.03261901  0.97610580    -0.71800
O646        O  0.53508131  0.44802541  0.02574764    -0.71800
O647        O  0.53430099  0.44440192  0.97767313    -0.71800
O648        O  0.53065782  0.03576021  0.02418527    -0.72000
V649        V  0.96191599  0.49032455  0.00088231     1.35200
V650        V  0.53249994  0.48959551  0.00062343     1.35200
C651        C  0.99362293  0.05132941  0.03255289     0.77500
C652        C  0.49774309  0.43011884  0.96941514     0.77500
C653        C  0.99836196  0.43332495  0.03389438     0.77400
C654        C  0.49385254  0.04835998  0.96791614     0.77400
O655        O  0.53334205  0.19923891  0.11323565    -0.71800
O656        O  0.53442799  0.28130337  0.16359927    -0.72000
O657        O  0.53462426  0.19438732  0.16088358    -0.71800
O658        O  0.53334858  0.28582756  0.11572739    -0.71800
O659        O  0.95954764  0.28521950  0.11472474    -0.71800
O660        O  0.96093804  0.19818055  0.16290471    -0.71800
O661        O  0.96072904  0.28542681  0.16272304    -0.71800
O662        O  0.95962796  0.19844928  0.11480272    -0.72000
V663        V  0.53249759  0.24026225  0.13842822     1.35200
V664        V  0.96156280  0.24181758  0.13883523     1.35200
C665        C  0.99612529  0.18432035  0.10562133     0.77500
C666        C  0.99760727  0.29836782  0.17129265     0.77500
C667        C  0.99791969  0.18028101  0.16926638     0.77400
C668        C  0.99601584  0.30065630  0.10708249     0.77400
C669        C  0.00097881  0.44875654  0.23425786     0.86500
C670        C  0.54238538  0.45670381  0.25046674    -0.53700
C671        C  0.53827412  0.99425697  0.26090741     0.09400
C672        C  0.99662472  0.02320716  0.25456713     0.20400
C673        C  0.96061339  0.45674176  0.25100008    -0.54500
C674        C  0.95554840  0.99577328  0.26069511     0.09500
C675        C  0.00023185  0.48716362  0.21687965    -0.54000
C676        C  0.99655791  0.02582271  0.22716605     0.10100
H677        H  0.56852618  0.43259273  0.25408134     0.14600
H678        H  0.99606293  0.05557412  0.26297609     0.00400
H679        H  0.93470357  0.43314702  0.25421475     0.14900
H680        H  0.00008262  0.48343641  0.19754055     0.14700
O681        O  0.96764700  0.28535982  0.83914457    -0.71800
O682        O  0.96346251  0.19742433  0.88637020    -0.72000
O683        O  0.96483555  0.28429493  0.88711252    -0.71800
O684        O  0.96684705  0.19849108  0.83840582    -0.71800
O685        O  0.54125061  0.19720926  0.83938094    -0.71800
O686        O  0.53847170  0.28052536  0.88897510    -0.71800
O687        O  0.53740403  0.19372559  0.88703302    -0.71800
O688        O  0.54168716  0.28462825  0.84110849    -0.72000
V689        V  0.96711774  0.24136933  0.86276404     1.35200
V690        V  0.53828684  0.23910927  0.86405651     1.35200
C691        C  0.50555829  0.30052138  0.83222577     0.77500
C692        C  0.49995183  0.18002275  0.89441230     0.77500
C693        C  0.50162135  0.29699232  0.89634938     0.77400
C694        C  0.50514048  0.18272558  0.83077326     0.77400
O695        O  0.54418775  0.08594069  0.52234497    -0.71800
O696        O  0.94954920  0.08723900  0.47588138    -0.72000
O697        O  0.95339586  0.08570524  0.52444388    -0.71800
O698        O  0.54015600  0.08729118  0.47386578    -0.71800
O699        O  0.54148885  0.01716029  0.47358048    -0.71800
O700        O  0.95582519  0.01563020  0.52364951    -0.71800
O701        O  0.95169469  0.01715032  0.47571518    -0.71800
O702        O  0.54578918  0.01583346  0.52153706    -0.72000
V703        V  0.99685007  0.08526228  0.49919225     1.35200
V704        V  0.99862370  0.01787367  0.49868679     1.35200
C705        C  0.56061942  0.05046078  0.53018959     0.77500
C706        C  0.93508232  0.05214037  0.46749108     0.77500
C707        C  0.94023603  0.05007444  0.53287288     0.77400
C708        C  0.55506930  0.05223610  0.46485589     0.77400
C709        C  0.99805836  0.33365518  0.18920204    -0.05400
C710        C  0.95953239  0.36041317  0.19196284    -0.32900
C711        C  0.95994549  0.39647765  0.20702690     0.36400
C712        C  0.99916123  0.40619179  0.22036317    -0.05800
C713        C  0.53773800  0.37861364  0.21790316    -0.32800
C714        C  0.53756093  0.34302527  0.20244872     0.36300
H715        H  0.92929890  0.35450780  0.18162555     0.16600
O716        O  0.92262595  0.42368339  0.20741414    -0.60300
H717        H  0.56915343  0.38511082  0.22680458     0.16700
O718        O  0.57618755  0.31794874  0.20027385    -0.60400
H719        H  0.59523251  0.33342345  0.18861748     0.43700
H720        H  0.89931565  0.40791090  0.21645573     0.43600
C721        C  0.99891820  0.14216925  0.18515922    -0.05400
C722        C  0.96686708  0.13813262  0.20347708    -0.32900
C723        C  0.96657212  0.10093671  0.21789920     0.36400
C724        C  0.99779957  0.06680286  0.21355361    -0.05800
C725        C  0.53022235  0.07094855  0.19552147    -0.32800
C726        C  0.53110345  0.10818609  0.18140959     0.36300
H727        H  0.94197571  0.16376110  0.20655959     0.16600
O728        O  0.93402620  0.09714470  0.23517700    -0.60300
H729        H  0.55458683  0.04499073  0.19210836     0.16700
O730        O  0.56224971  0.11042126  0.16331041    -0.60400
H731        H  0.54669516  0.09931468  0.14893223     0.43700
H732        H  0.94407845  0.11551134  0.24862336     0.43600
C733        C  0.49411108  0.08100546  0.94852744    -0.05400
C734        C  0.53314556  0.08528071  0.93454357    -0.32900
C735        C  0.53507393  0.11648599  0.91645797     0.36400
C736        C  0.49790727  0.14490809  0.91238479    -0.05800
C737        C  0.95785946  0.13958518  0.92595655    -0.32800
C738        C  0.95584131  0.10806033  0.94391499     0.36300
H739        H  0.56231254  0.06409371  0.93749460     0.16600
O740        O  0.57340820  0.11861678  0.90278970    -0.60300
H741        H  0.92862566  0.16066407  0.92296027     0.16700
O742        O  0.91682427  0.10465595  0.95693084    -0.60400
H743        H  0.92079176  0.12384827  0.97095567     0.43700
H744        H  0.56716606  0.10096032  0.88839747     0.43600
C745        C  0.49814644  0.39575064  0.95091624    -0.05400
C746        C  0.53944462  0.37629121  0.94401435    -0.32900
C747        C  0.54118230  0.34421327  0.92639768     0.36400
C748        C  0.50101934  0.33059479  0.91530331    -0.05800
C749        C  0.95946672  0.35033128  0.92219373    -0.32800
C750        C  0.95781295  0.38259448  0.93972193     0.36300
H751        H  0.57077265  0.38598274  0.95225570     0.16600
O752        O  0.58241005  0.32615686  0.92043916    -0.60300
H753        H  0.92818260  0.34099662  0.91377912     0.16700
O754        O  0.91680434  0.40155180  0.94525932    -0.60400
H755        H  0.90331414  0.38221864  0.95734689     0.43700
H756        H  0.59500082  0.34581735  0.90823176     0.43600
C757        C  0.99835306  0.39983260  0.05286392    -0.05400
C758        C  0.95885341  0.37658258  0.05689877    -0.32900
C759        C  0.95752533  0.34426758  0.07439250     0.36400
C760        C  0.99605835  0.33484805  0.08850749    -0.05800
C761        C  0.53616545  0.35788563  0.08446180    -0.32800
C762        C  0.53745556  0.39021872  0.06692620     0.36300
H763        H  0.92886180  0.38299399  0.04620022     0.16600
O764        O  0.91844968  0.32187367  0.07729005    -0.60300
H765        H  0.56625045  0.35122357  0.09504557     0.16700
O766        O  0.57662086  0.41236879  0.06379828    -0.60400
H767        H  0.57436710  0.43709909  0.07503845     0.43700
H768        H  0.92166185  0.29647491  0.06656464     0.43600
C769        C  0.99588423  0.15083685  0.08664250    -0.05400
C770        C  0.95519437  0.14102972  0.07508606    -0.32900
C771        C  0.95393324  0.10930474  0.05725190     0.36400
C772        C  0.99374945  0.08608422  0.05085343    -0.05800
C773        C  0.53496481  0.09635004  0.06208442    -0.32800
C774        C  0.53631807  0.12813027  0.07984146     0.36300
H775        H  0.92414777  0.15825736  0.07973175     0.16600
O776        O  0.91352527  0.10144846  0.04622542    -0.60300
H777        H  0.56604638  0.07918828  0.05744241     0.16700
O778        O  0.57693658  0.13641100  0.09054402    -0.60400
H779        H  0.57860507  0.11687462  0.10464008     0.43700
H780        H  0.91292256  0.12035418  0.03184285     0.43600
C781        C  0.90062661  0.05148347  0.44806862    -0.05400
C782        C  0.88379037  0.09031105  0.43786385    -0.32900
C783        C  0.85259212  0.08989971  0.41885576     0.36400
C784        C  0.83776986  0.05016436  0.40963817    -0.05800
C785        C  0.85447604  0.01159058  0.41998591    -0.32800
C786        C  0.88551849  0.01190675  0.43878610     0.36300
H787        H  0.89501325  0.12114641  0.44450520     0.16600
O788        O  0.83727101  0.12848607  0.40937371    -0.60300
H789        H  0.84372775  0.98056329  0.41338286     0.16700
O790        O  0.90062323  0.97298156  0.44795219    -0.60400
H791        H  0.92630403  0.96394999  0.43761093     0.43700
H792        H  0.81042482  0.13678916  0.41905310     0.43600
C793        C  0.58728306  0.05129852  0.44452237    -0.05400
C794        C  0.60424700  0.01109337  0.43647237    -0.32900
C795        C  0.63494083  0.00823645  0.41757069     0.36400
C796        C  0.64944512  0.04611686  0.40603995    -0.05800
C797        C  0.63174427  0.08636401  0.41369131    -0.32800
C798        C  0.60101247  0.08918300  0.43274080     0.36300
H799        H  0.60247663  0.48101044  0.44699904     0.16600
O800        O  0.65997329  0.46826769  0.41313391    -0.60300
H801        H  0.64204307  0.11592472  0.40504609     0.16700
O802        O  0.58422050  0.12907592  0.43937317    -0.60400
H803        H  0.60634697  0.14013332  0.45108133     0.43700
H804        H  0.68636481  0.46329604  0.42386652     0.43600
C805        C  0.91901324  0.01033364  0.27690229    -0.05400
C806        C  0.93160835  0.51936222  0.30151865    -0.32900
C807        C  0.89282536  0.02380116  0.31745295     0.36400
C808        C  0.84879172  0.03194998  0.30882740    -0.05800
C809        C  0.84026249  0.03031833  0.28416953    -0.32800
C810        C  0.87510194  0.01921288  0.26819429     0.36300
H811        H  0.96552518  0.51541185  0.30843650     0.16600
O812        O  0.90566418  0.53592161  0.34105693    -0.60300
H813        H  0.80624742  0.03581397  0.27743213     0.16700
O814        O  0.86593832  0.01664052  0.24417292    -0.60400
H815        H  0.85431810  0.98714643  0.24173409     0.43700
H816        H  0.90968534  0.56747673  0.34291677     0.43600
C817        C  0.65240687  0.02764764  0.30521453    -0.05400
C818        C  0.60997115  0.04686228  0.30959215    -0.32900
C819        C  0.57241954  0.03674010  0.29545978     0.36400
C820        C  0.57747467  0.00800357  0.27591681    -0.05800
C821        C  0.62115514  0.99127137  0.27073851    -0.32800
C822        C  0.65813670  0.00040751  0.28535117     0.36300
H823        H  0.60527023  0.06788214  0.32493069     0.16600
O824        O  0.53094443  0.05407254  0.30150457    -0.60300
H825        H  0.62688624  0.97063710  0.25536363     0.16700
O826        O  0.69969875  0.98220816  0.28019036    -0.60400
H827        H  0.71538647  0.00429215  0.27060914     0.43700
H828        H  0.52485133  0.04381223  0.31799301     0.43600
C829        C  0.59508350  0.04859890  0.54959089    -0.05400
C830        C  0.60979832  0.00796796  0.55827422    -0.32900
C831        C  0.63978906  0.00426304  0.57754348     0.36400
C832        C  0.65643057  0.04168941  0.58862338    -0.05800
C833        C  0.64241231  0.08243613  0.57970078    -0.32800
C834        C  0.61198488  0.08610606  0.56044833     0.36300
H835        H  0.59754081  0.97854701  0.55032174     0.16600
O836        O  0.65274848  0.96364933  0.58519511    -0.60300
H837        H  0.65502710  0.11170035  0.58765945     0.16700
O838        O  0.59942589  0.12652021  0.55234039    -0.60400
H839        H  0.57308169  0.13538583  0.56229460     0.43700
H840        H  0.62968793  0.95548843  0.59714773     0.43600
C841        C  0.90770531  0.04816246  0.55308211    -0.05400
C842        C  0.89040215  0.08640495  0.56357072    -0.32900
C843        C  0.85926517  0.08493448  0.58250089     0.36400
C844        C  0.84451948  0.04470247  0.59113825    -0.05800
C845        C  0.86266050  0.00666260  0.58097055    -0.32800
C846        C  0.89369635  0.00802767  0.56223975     0.36300
H847        H  0.90083230  0.11762573  0.55703750     0.16600
O848        O  0.84271135  0.12301688  0.59191346    -0.60300
H849        H  0.85141696  0.47451562  0.58546005     0.16700
O850        O  0.90942679  0.46773988  0.55130664    -0.60400
H851        H  0.88643670  0.46040093  0.53912069     0.43700
H852        H  0.86457802  0.13078388  0.60458225     0.43600
C853        C  0.50676590  0.14648014  0.81359092    -0.05400
C854        C  0.54140828  0.11490210  0.81581325    -0.32900
C855        C  0.54126422  0.07750720  0.80182764     0.36400
C856        C  0.50654853  0.07148564  0.78498050    -0.05800
C857        C  0.96912318  0.10203708  0.78334186    -0.32800
C858        C  0.96857138  0.13896699  0.79786814     0.36300
H859        H  0.56764518  0.11828623  0.82919056     0.16600
O860        O  0.57440588  0.04633808  0.80530466    -0.60300
H861        H  0.94019537  0.09565770  0.77213403     0.16700
O862        O  0.93203450  0.16703102  0.79687949    -0.60400
H863        H  0.90876319  0.15384628  0.80715642     0.43700
H864        H  0.59702291  0.05145576  0.79259569     0.43600
C865        C  0.50503525  0.41048560  0.78421578    -0.05400
C866        C  0.96855324  0.38153126  0.78437315    -0.32900
C867        C  0.96861134  0.34551812  0.79958827     0.36400
C868        C  0.50619255  0.33682181  0.81487818    -0.05800
C869        C  0.54239215  0.36523878  0.81478958    -0.32800
C870        C  0.54174764  0.40196852  0.80000583     0.36300
H871        H  0.93910813  0.38638119  0.77329975     0.16600
O872        O  0.93258728  0.31840995  0.79887767    -0.60300
H873        H  0.57070722  0.35985371  0.82683818     0.16700
O874        O  0.57728428  0.42960388  0.80119888    -0.60400
H875        H  0.57206683  0.44695464  0.81588508     0.43500
H876        H  0.90891168  0.33264225  0.80885670     0.43600
C877        C  0.65019541  0.01756517  0.69063160    -0.05400
C878        C  0.66590815  0.49966675  0.71312307    -0.32900
C879        C  0.63139968  0.49154961  0.72960276     0.36400
C880        C  0.57950117  0.00104459  0.72341979    -0.05800
C881        C  0.57154499  0.02654859  0.70286623    -0.32800
C882        C  0.60650490  0.03507315  0.68666829     0.36300
H883        H  0.69989960  0.48759072  0.71679166     0.16600
O884        O  0.64237706  0.47104811  0.75071357    -0.60300
H885        H  0.53791307  0.03920426  0.69897068     0.16700
O886        O  0.59733945  0.05962909  0.66668829    -0.60400
H887        H  0.58939090  0.03863296  0.65406474     0.43700
H888        H  0.65160521  0.44109558  0.74624243     0.43600
C889        C  0.92453718  0.00798149  0.72135088    -0.05400
C890        C  0.89813118  0.04620969  0.72261257    -0.32900
C891        C  0.86089998  0.05290996  0.70720222     0.36400
C892        C  0.84996234  0.02117428  0.69011503    -0.05800
C893        C  0.87770493  0.98377053  0.68846030    -0.32800
C894        C  0.91464938  0.97722905  0.70369075     0.36300
H895        H  0.90523367  0.07008752  0.73614451     0.16600
O896        O  0.83498409  0.09001223  0.70941351    -0.60300
H897        H  0.87082775  0.95922073  0.67522628     0.16700
O898        O  0.94054714  0.94006761  0.70145196    -0.60400
H899        H  0.96692891  0.94839143  0.69170063     0.43700
H900        H  0.81048146  0.08253430  0.72067297     0.43600
C901        C  0.99787063  0.95165140  0.76954234     0.86500
C902        C  0.95721887  0.96005002  0.75277090    -0.53700
C903        C  0.96564952  0.49701210  0.73867256     0.09400
C904        C  0.00614858  0.52512233  0.74520185     0.20400
C905        C  0.53821044  0.95356642  0.75252829    -0.54500
C906        C  0.54824455  0.49533180  0.74118567     0.09500
C907        C  0.99993597  0.99246377  0.78497831    -0.54000
C908        C  0.50284421  0.53055930  0.77248358     0.10100
H909        H  0.92944472  0.93848615  0.75018754     0.14600
H910        H  0.00664670  0.55629321  0.73535063     0.00400
H911        H  0.56188115  0.92658088  0.75036401     0.14900
H912        H  0.99987590  0.99175785  0.80442583     0.14700
O913        O  0.79713210  0.99303467  0.66239191    -0.71800
O914        O  0.70408547  0.00209119  0.61599215    -0.72000
O915        O  0.79413206  0.00425176  0.61513442    -0.71800
O916        O  0.70634503  0.99076296  0.66375368    -0.71800
O917        O  0.70585362  0.56485156  0.66744554    -0.71800
O918        O  0.79818711  0.57443370  0.62035990    -0.71800
O919        O  0.70749708  0.57404842  0.61942571    -0.71800
O920        O  0.79816302  0.56508990  0.66819553    -0.72000
V921        V  0.75025325  0.99892195  0.63948655     1.35200
V922        V  0.75235586  0.56837498  0.64390753     1.35200
C923        C  0.81727108  0.52879547  0.67260695     0.77500
C924        C  0.69227787  0.54033902  0.60974547     0.77500
C925        C  0.81282579  0.54125592  0.60936505     0.77400
C926        C  0.69310963  0.52801850  0.67423829     0.77400
O927        O  0.78979312  0.01092344  0.38369778    -0.71800
O928        O  0.70794460  0.99963260  0.33204606    -0.72000
O929        O  0.79801008  0.00224076  0.33638805    -0.71800
O930        O  0.70003858  0.00821237  0.37968134    -0.71800
O931        O  0.70500891  0.57847320  0.37892882    -0.71800
O932        O  0.79556222  0.57196236  0.33068354    -0.71800
O933        O  0.70417556  0.57114836  0.33104352    -0.71800
O934        O  0.79555862  0.57951591  0.37872881    -0.72000
V935        V  0.74884477  0.00663085  0.35783393     1.35200
V936        V  0.75014219  0.57403712  0.35482009     1.35200
C937        C  0.80978986  0.54605929  0.38972821     0.77500
C938        C  0.69234650  0.53451394  0.32361330     0.77500
C939        C  0.81427848  0.53589975  0.32573802     0.77400
C940        C  0.68951956  0.54429135  0.38792524     0.77400
O941        O  0.96016742  0.53441823  0.02443677    -0.71800
O942        O  0.95755668  0.94846814  0.97735354    -0.72000
O943        O  0.95750984  0.94921548  0.02536848    -0.71800
O944        O  0.95933660  0.53306660  0.97659589    -0.71800
O945        O  0.53258414  0.53105560  0.97547136    -0.71800
O946        O  0.53089220  0.94898008  0.02584086    -0.71800
O947        O  0.53076405  0.94603787  0.97781904    -0.71800
O948        O  0.53352540  0.53485607  0.02352636    -0.72000
V949        V  0.95870802  0.99224313  0.00111291     1.35200
V950        V  0.52930230  0.99090759  0.00100686     1.35200
C951        C  0.99662964  0.55016600  0.03185924     0.77500
C952        C  0.49411346  0.93221591  0.96941478     0.77500
C953        C  0.99424099  0.93443591  0.03404119     0.77400
C954        C  0.49538797  0.54636024  0.96762271     0.77400
O955        O  0.53300123  0.69945519  0.11212581    -0.71800
O956        O  0.53116753  0.78109404  0.16276490    -0.72000
O957        O  0.53389844  0.69421053  0.15977066    -0.71800
O958        O  0.53051095  0.78604027  0.11485664    -0.71800
O959        O  0.95718753  0.78345345  0.11373435    -0.71800
O960        O  0.96037949  0.69605526  0.16172846    -0.71800
O961        O  0.95764693  0.78334309  0.16173597    -0.71800
O962        O  0.95970222  0.69669662  0.11362850    -0.72000
V963        V  0.53071301  0.74025398  0.13743299     1.35200
V964        V  0.96008768  0.73988805  0.13775391     1.35200
C965        C  0.99664141  0.68353067  0.10453727     0.77500
C966        C  0.99401921  0.79701604  0.17052511     0.77500
C967        C  0.99772401  0.67908699  0.16825808     0.77400
C968        C  0.99330684  0.79988574  0.10629754     0.77400
C969        C  0.99641066  0.94778057  0.23336841     0.86500
C970        C  0.53749114  0.95453527  0.25004839    -0.53700
C971        C  0.54271303  0.49674308  0.26110562     0.09400
C972        C  0.00030639  0.52449590  0.25505969     0.20400
C973        C  0.95559663  0.95633345  0.24980194    -0.54500
C974        C  0.95988187  0.49641373  0.26158896     0.09500
C975        C  0.99680433  0.98653370  0.21616966    -0.54000
C976        C  0.99965788  0.52657439  0.22765312     0.10100
H977        H  0.56359982  0.93040246  0.25358963     0.14600
H978        H  0.99907267  0.55709289  0.26314588     0.00400
H979        H  0.92901057  0.93326488  0.25261816     0.14900
H980        H  0.99702224  0.98312378  0.19681472     0.14700
O981        O  0.96056597  0.78515854  0.84006789    -0.71800
O982        O  0.95924199  0.69848050  0.88824080    -0.72000
O983        O  0.96043744  0.78539314  0.88801250    -0.71800
O984        O  0.95920341  0.69815560  0.84043942    -0.71800
O985        O  0.53184595  0.69813993  0.83876627    -0.71800
O986        O  0.53293764  0.78006456  0.88949194    -0.71800
O987        O  0.53182984  0.69308564  0.88661730    -0.71800
O988        O  0.53309848  0.78510447  0.84163157    -0.72000
V989        V  0.96126718  0.74179596  0.86415697     1.35200
V990        V  0.53105230  0.73915925  0.86412922     1.35200
C991        C  0.49662928  0.80057571  0.83303039     0.77500
C992        C  0.49505957  0.68000498  0.89517367     0.77500
C993        C  0.49655613  0.79744295  0.89705483     0.77400
C994        C  0.49492911  0.68282187  0.83164168     0.77400
O995        O  0.54769628  0.58493346  0.52280083    -0.71800
O996        O  0.95408879  0.58484038  0.47577727    -0.72000
O997        O  0.95696661  0.58350323  0.52418941    -0.71800
O998        O  0.54474777  0.58613139  0.47440207    -0.71800
O999        O  0.54696723  0.51598539  0.47418527    -0.71800
O1000       O  0.95995728  0.51340183  0.52355109    -0.71800
O1001       O  0.95692254  0.51473822  0.47559426    -0.71800
O1002       O  0.55010371  0.51481593  0.52214036    -0.72000
V1003       V  0.00083033  0.58343054  0.49929088     1.35200
V1004       V  0.00331831  0.51602268  0.49887729     1.35200
C1005       C  0.56433153  0.54968461  0.53080859     0.77500
C1006       C  0.94015137  0.54962243  0.46731577     0.77500
C1007       C  0.94387685  0.54783350  0.53255193     0.77400
C1008       C  0.56033739  0.55122467  0.46557289     0.77400
C1009       C  0.99338578  0.83213744  0.18853090    -0.05400
C1010       C  0.95600815  0.86076431  0.18974599    -0.32900
C1011       C  0.95628831  0.89694351  0.20479045     0.36400
C1012       C  0.99429022  0.90514839  0.21940973    -0.05800
C1013       C  0.53089806  0.87488556  0.21888239    -0.32800
C1014       C  0.53081072  0.83917231  0.20351768     0.36300
H1015       H  0.92700843  0.85616425  0.17824386     0.16600
O1016       O  0.92015823  0.92556817  0.20403551    -0.60300
H1017       H  0.56093525  0.87895017  0.22942302     0.16700
O1018       O  0.56748613  0.81118785  0.20346340    -0.60400
H1019       H  0.59035975  0.82528848  0.19332484     0.43700
H1020       H  0.89569218  0.91133511  0.21300764     0.43600
C1021       C  0.99950893  0.64139936  0.18445054    -0.05400
C1022       C  0.96709018  0.63702819  0.20256469    -0.32900
C1023       C  0.96765528  0.60039881  0.21741755     0.36400
C1024       C  0.00017920  0.56717179  0.21373539    -0.05800
C1025       C  0.53288454  0.57188395  0.19583373    -0.32800
C1026       C  0.53294499  0.60861878  0.18129413     0.36300
H1027       H  0.94125439  0.66197351  0.20516095     0.16600
O1028       O  0.93475340  0.59616594  0.23446670    -0.60300
H1029       H  0.55828046  0.54659683  0.19299383     0.16700
O1030       O  0.56476022  0.61130261  0.16355000    -0.60400
H1031       H  0.55058748  0.59844132  0.14922851     0.43700
H1032       H  0.94435148  0.61448527  0.24802953     0.43600
C1033       C  0.49418546  0.57951020  0.94853680    -0.05400
C1034       C  0.53142992  0.58345733  0.93324866    -0.32900
C1035       C  0.53163548  0.61517560  0.91537497     0.36400
C1036       C  0.49462180  0.64444997  0.91291424    -0.05800
C1037       C  0.95734349  0.64008891  0.92781026    -0.32800
C1038       C  0.95679732  0.60806545  0.94551304     0.36300
H1039       H  0.56039610  0.56157946  0.93498493     0.16600
O1040       O  0.56808599  0.61694912  0.90030941    -0.60300
H1041       H  0.92840201  0.66199138  0.92607256     0.16700
O1042       O  0.91953678  0.60532843  0.95996004    -0.60400
H1043       H  0.92655071  0.62293307  0.97426922     0.43700
H1044       H  0.55973009  0.59941514  0.88619036     0.43600
C1045       C  0.49429200  0.89772705  0.95092206    -0.05400
C1046       C  0.53546214  0.87798325  0.94395457    -0.32900
C1047       C  0.53689114  0.84547235  0.92652825     0.36400
C1048       C  0.49657012  0.83160904  0.91575136    -0.05800
C1049       C  0.95589868  0.85150442  0.92270009    -0.32800
C1050       C  0.95435961  0.88408305  0.94005294     0.36300
H1051       H  0.56691927  0.88777074  0.95201093     0.16600
O1052       O  0.57796406  0.82728469  0.92041980    -0.60300
H1053       H  0.92448712  0.84194064  0.91450629     0.16700
O1054       O  0.91335729  0.90302623  0.94562716    -0.60400
H1055       H  0.90023507  0.88407109  0.95801762     0.43700
H1056       H  0.58982434  0.84618626  0.90764137     0.43600
C1057       C  0.99422649  0.90057931  0.05283825    -0.05400
C1058       C  0.95445820  0.87802287  0.05735415    -0.32900
C1059       C  0.95353822  0.84513267  0.07457417     0.36400
C1060       C  0.99276252  0.83449485  0.08792345    -0.05800
C1061       C  0.53267306  0.85708145  0.08320901    -0.32800
C1062       C  0.53359964  0.88987681  0.06597077     0.36300
H1063       H  0.92396463  0.88541225  0.04724383     0.16600
O1064       O  0.91414257  0.82349671  0.07800990    -0.60300
H1065       H  0.56332188  0.84948607  0.09314618     0.16700
O1066       O  0.57318315  0.91110589  0.06233849    -0.60400
H1067       H  0.57160470  0.93641007  0.07320570     0.43700
H1068       H  0.91563378  0.79886784  0.06667430     0.43600
C1069       C  0.99733524  0.65025127  0.08548458    -0.05400
C1070       C  0.95713339  0.64063175  0.07342439    -0.32900
C1071       C  0.95648361  0.60879815  0.05567600     0.36400
C1072       C  0.99642332  0.58528023  0.04988020    -0.05800
C1073       C  0.53687405  0.59538801  0.06156872    -0.32800
C1074       C  0.53759352  0.62741175  0.07920348     0.36300
H1075       H  0.92597135  0.65803927  0.07764409     0.16600
O1076       O  0.91653026  0.60108720  0.04415182    -0.60300
H1077       H  0.56802540  0.57791920  0.05740704     0.16700
O1078       O  0.57770153  0.63556207  0.09046797    -0.60400
H1079       H  0.57855629  0.61609444  0.10460364     0.43700
H1080       H  0.91681363  0.61969649  0.02965555     0.43600
C1081       C  0.90604720  0.54894975  0.44779331    -0.05400
C1082       C  0.88771093  0.58791144  0.43851463    -0.32900
C1083       C  0.85647685  0.58783585  0.41958335     0.36400
C1084       C  0.84313681  0.54830598  0.40949813    -0.05800
C1085       C  0.86147501  0.50953311  0.41882447    -0.32800
C1086       C  0.89261591  0.50954089  0.43758511     0.36300
H1087       H  0.89763850  0.61863339  0.44589402     0.16600
O1088       O  0.83946143  0.62657990  0.41111207    -0.60300
H1089       H  0.85190531  0.47868716  0.41145686     0.16700
O1090       O  0.90949673  0.47054173  0.44577765    -0.60400
H1091       H  0.93573539  0.46362286  0.43536332     0.43700
H1092       H  0.81231558  0.63295373  0.42096985     0.43600
C1093       C  0.59309386  0.55067021  0.44557196    -0.05400
C1094       C  0.61163333  0.51072731  0.43812351    -0.32900
C1095       C  0.64255938  0.50816682  0.41936910     0.36400
C1096       C  0.65541635  0.54605277  0.40728094    -0.05800
C1097       C  0.63657119  0.58607457  0.41451687    -0.32800
C1098       C  0.60578191  0.58862728  0.43351830     0.36300
H1099       H  0.59401579  0.98137678  0.44498282     0.16600
O1100       O  0.65039753  0.96804738  0.41059122    -0.60300
H1101       H  0.64585609  0.61562396  0.40551611     0.16700
O1102       O  0.58780504  0.62826890  0.43978349    -0.60400
H1103       H  0.60945570  0.64019043  0.45147093     0.43700
H1104       H  0.67613305  0.96096766  0.42144466     0.43600
C1105       C  0.92267769  0.51080264  0.27740217    -0.05400
C1106       C  0.92758754  0.01294431  0.30149018    -0.32900
C1107       C  0.89641274  0.53010830  0.31722449     0.36400
C1108       C  0.85168040  0.53226273  0.30878073    -0.05800
C1109       C  0.84262204  0.52430820  0.28460950    -0.32800
C1110       C  0.87786380  0.51332692  0.26891766     0.36300
H1111       H  0.96077094  0.00455692  0.30841492     0.16600
O1112       O  0.90168052  0.02448107  0.34155904    -0.60300
H1113       H  0.80808299  0.52500534  0.27812655     0.16700
O1114       O  0.86828898  0.50480734  0.24538620    -0.60400
H1115       H  0.85780692  0.47457817  0.24519850     0.43700
H1116       H  0.91053351  0.05456027  0.34500114     0.43600
C1117       C  0.65647544  0.53030446  0.30561910    -0.05400
C1118       C  0.61467173  0.55125594  0.30919127    -0.32900
C1119       C  0.57723049  0.54152966  0.29486291     0.36400
C1120       C  0.58189766  0.51123475  0.27596750    -0.05800
C1121       C  0.62533568  0.49334251  0.27136799    -0.32800
C1122       C  0.66206006  0.50213948  0.28616955     0.36300
H1123       H  0.61024664  0.57334226  0.32408841     0.16600
O1124       O  0.53634697  0.56105073  0.30002075    -0.60300
H1125       H  0.63111899  0.47189965  0.25634887     0.16700
O1126       O  0.70323229  0.48255620  0.28164962    -0.60400
H1127       H  0.72018340  0.50399951  0.27224288     0.43700
H1128       H  0.52992862  0.55397053  0.31698683     0.43600
C1129       C  0.59832748  0.54844968  0.55041826    -0.05400
C1130       C  0.61268520  0.50813407  0.55965260    -0.32900
C1131       C  0.64239928  0.50509952  0.57905855     0.36400
C1132       C  0.65914066  0.54290699  0.58971103    -0.05800
C1133       C  0.64532457  0.58333510  0.58029531    -0.32800
C1134       C  0.61517559  0.58633184  0.56089763     0.36300
H1135       H  0.60041747  0.47845460  0.55200470     0.16600
O1136       O  0.65513854  0.46474030  0.58720216    -0.60300
H1137       H  0.65803387  0.61285540  0.58790901     0.16700
O1138       O  0.60301401  0.62644761  0.55219690    -0.60400
H1139       H  0.57670724  0.63600293  0.56199419     0.43700
H1140       H  0.63198096  0.45714297  0.59922138     0.43600
C1141       C  0.91088655  0.54615899  0.55245505    -0.05400
C1142       C  0.89547628  0.58461276  0.56341467    -0.32900
C1143       C  0.86423654  0.58377613  0.58223077     0.36400
C1144       C  0.84729992  0.54398708  0.59023005    -0.05800
C1145       C  0.86334187  0.50559626  0.57950879    -0.32800
C1146       C  0.89468705  0.50634823  0.56089870     0.36300
H1147       H  0.90769891  0.61556114  0.55743901     0.16600
O1148       O  0.85003602  0.62211994  0.59231015    -0.60300
H1149       H  0.85251824  0.97528032  0.58740961     0.16700
O1150       O  0.91033949  0.96962324  0.55323579    -0.60400
H1151       H  0.88713808  0.95996375  0.54171137     0.43700
H1152       H  0.87290104  0.62837885  0.60475484     0.43600
C1153       C  0.49427237  0.64657902  0.81443536    -0.05400
C1154       C  0.52866029  0.64148005  0.79725609    -0.32900
C1155       C  0.53039211  0.60501505  0.78230888     0.36400
C1156       C  0.49827752  0.57255100  0.78500239    -0.05800
C1157       C  0.96327070  0.57886220  0.80140119    -0.32800
C1158       C  0.96107780  0.61546319  0.81596262     0.36300
H1159       H  0.55459962  0.66545644  0.79567572     0.16600
O1160       O  0.56527951  0.59998454  0.76636060    -0.60300
H1161       H  0.93785627  0.55445404  0.80341088     0.16700
O1162       O  0.92692606  0.61917187  0.83246063    -0.60400
H1163       H  0.93878501  0.60456272  0.84707975     0.43700
H1164       H  0.55573691  0.61679117  0.75200884     0.43600
C1165       C  0.49744693  0.91000705  0.78478919    -0.05400
C1166       C  0.96069563  0.88283664  0.78581558    -0.32900
C1167       C  0.96034044  0.84695267  0.80108826     0.36400
C1168       C  0.49705815  0.83690514  0.81573931    -0.05800
C1169       C  0.53495854  0.86318538  0.81446519    -0.32800
C1170       C  0.53515604  0.89960711  0.79953393     0.36300
H1171       H  0.93070445  0.88863587  0.77529788     0.16600
O1172       O  0.92327400  0.82112292  0.80109347    -0.60300
H1173       H  0.56421140  0.85631743  0.82565196     0.16700
O1174       O  0.57249025  0.92511220  0.79957672    -0.60400
H1175       H  0.56988658  0.94283212  0.81430447     0.43500
H1176       H  0.90097993  0.83595782  0.81167061     0.43600
C1177       C  0.65702753  0.52328725  0.69217851    -0.05400
C1178       C  0.65846847  0.99248132  0.71112147    -0.32900
C1179       C  0.62394217  0.98473804  0.72765602     0.36400
C1180       C  0.58652621  0.50611089  0.72489252    -0.05800
C1181       C  0.57806457  0.53053954  0.70399763    -0.32800
C1182       C  0.61292008  0.53933335  0.68781086     0.36300
H1183       H  0.69214753  0.97934591  0.71453388     0.16600
O1184       O  0.63469240  0.96325591  0.74849971    -0.60300
H1185       H  0.54409244  0.54179919  0.69971812     0.16700
O1186       O  0.60320962  0.56237667  0.66735506    -0.60400
H1187       H  0.59641097  0.54035918  0.65507259     0.43700
H1188       H  0.64257225  0.93315098  0.74369622     0.43600
C1189       C  0.93121876  0.50795626  0.72005037    -0.05400
C1190       C  0.90913959  0.54870197  0.71955203    -0.32900
C1191       C  0.87237041  0.55679248  0.70396096     0.36400
C1192       C  0.85720172  0.52371061  0.68871103    -0.05800
C1193       C  0.88127806  0.48398662  0.68845125    -0.32800
C1194       C  0.91801961  0.47621616  0.70360307     0.36300
H1195       H  0.91930702  0.57372397  0.73184552     0.16600
O1196       O  0.85137703  0.59678723  0.70402557    -0.60300
H1197       H  0.87163802  0.45840988  0.67638812     0.16700
O1198       O  0.94063130  0.43704624  0.70231062    -0.60400
H1199       H  0.96676680  0.44204277  0.69165757     0.43700
H1200       H  0.82764284  0.59508067  0.71648209     0.43600
loop_ 
_geom_bond_atom_site_label_1 
_geom_bond_atom_site_label_2 
_geom_bond_distance 
_geom_bond_site_symmetry_2 
_ccdc_geom_bond_type 
C1            C2   1.542       .  S
C1            C7   1.530       .  S
C1          C605   1.536       .  S
C1          C865   1.537       .  S
C2            H9   1.080       .  S
C2          C303   1.367       .  D
C3            C4   1.541   1_565  S
C3          C302   1.363       .  D
C3          C289   1.483   1_565  S
C4          C608   1.538       .  S
C4          C606   1.550   1_545  S
C4           H10   1.110       .  S
C5          C601   1.537       .  S
C5           H11   1.084       .  S
C5          C306   1.372       .  D
C6          C604   1.550   1_565  S
C6          C305   1.372       .  D
C6          C280   1.499   1_565  S
C7           H12   1.087       .  S
C7          C908   1.363       .  D
C8          C604   1.537       .  S
C8          C907   1.362   1_445  D
C8          C256   1.476       .  S
O13          V21   1.887       .  S
O13         C323   1.263       .  A
O14          V21   1.892       .  S
O14         C324   1.263       .  A
O15          V21   1.892       .  S
O15         C325   1.264       .  A
O16          V21   1.899       .  S
O16         C326   1.263       .  A
O17          V22   1.910       .  S
O17          C26   1.266       .  A
O18          V22   1.907       .  S
O18          C25   1.266       .  A
O19          V22   1.907       .  S
O19          C24   1.267       .  A
O20          V22   1.914       .  S
O20          C23   1.268       .  A
V21         V322   2.084       .  T
V22         V321   2.083   1_545  T
C23         O313   1.264   1_545  A
C23         C292   1.487       .  S
C24         O314   1.264       .  A
C24         C232   1.488       .  S
C25         O315   1.265       .  A
C25         C244   1.485       .  S
C26         O316   1.264   1_545  A
C26         C277   1.477       .  S
O27          V35   1.891       .  S
O27         C337   1.264       .  A
O28          V35   1.894       .  S
O28         C338   1.263       .  A
O29          V35   1.886       .  S
O29         C339   1.260       .  A
O30          V35   1.889       .  S
O30         C340   1.263       .  A
O31          V36   1.904       .  S
O31          C40   1.266       .  A
O32          V36   1.909       .  S
O32          C39   1.265       .  A
O33          V36   1.904       .  S
O33          C38   1.265       .  A
O34          V36   1.908       .  S
O34          C37   1.266       .  A
V35         V336   2.086       .  T
V36         V335   2.085       .  T
C37         O327   1.265       .  A
C37         C184   1.486       .  S
C38         O328   1.263   1_545  A
C38         C217   1.471       .  S
C39         O329   1.261       .  A
C39         C208   1.465       .  S
C40         O330   1.264       .  A
C40         C196   1.484       .  S
O41         V349   1.900   1_545  S
O41          C51   1.265       .  A
O42          V49   1.897   1_556  S
O42         C652   1.264       .  A
O43          V49   1.893       .  S
O43          C53   1.264       .  A
O44         V349   1.897   1_546  S
O44         C654   1.264       .  A
O45         V350   1.896   1_546  S
O45          C54   1.265   1_455  A
O46          V50   1.901       .  S
O46         C653   1.265   1_455  A
O47          V50   1.899   1_556  S
O47          C52   1.265   1_455  A
O48         V350   1.900   1_545  S
O48         C651   1.265   1_455  A
V49         O341   1.897       .  S
V49         O344   1.892   1_554  S
V49         V650   2.085       .  T
V50         O345   1.900   1_554  S
V50         O348   1.900       .  S
V50         V649   2.085   1_455  T
C51         O648   1.266       .  A
C51         C172   1.486       .  S
C52         O642   1.264       .  A
C52         C145   1.484       .  S
C53         O646   1.265       .  A
C53         C157   1.480       .  S
C54         O644   1.264       .  A
C54         C133   1.479       .  S
O55          V63   1.896       .  S
O55         C665   1.264   1_455  A
O56          V63   1.898       .  S
O56         C666   1.264   1_455  A
O57          V63   1.891       .  S
O57         C667   1.263   1_455  A
O58          V63   1.894       .  S
O58         C668   1.263   1_455  A
O59          V64   1.899       .  S
O59          C68   1.265       .  A
O60          V64   1.903       .  S
O60          C67   1.265       .  A
O61          V64   1.900       .  S
O61          C66   1.265       .  A
O62          V64   1.902       .  S
O62          C65   1.266       .  A
V63         V664   2.085   1_455  T
V64         V663   2.085       .  T
C65         O655   1.264       .  A
C65         C169   1.484       .  S
C66         O656   1.264       .  A
C66         C109   1.483       .  S
C67         O657   1.263       .  A
C67         C121   1.474       .  S
C68         O658   1.264       .  A
C68         C160   1.480       .  S
C69          C75   1.532       .  S
C69          C73   1.534       .  S
C69         C670   1.544       .  S
C69         C112   1.532       .  S
C70         C669   1.544       .  S
C70          H77   1.080       .  S
C70         C371   1.375       .  D
C71         C672   1.544   1_465  S
C71         C370   1.372       .  D
C71         C220   1.500   1_565  S
C72          C76   1.533       .  S
C72          C74   1.538   1_545  S
C72         C671   1.544   1_545  S
C72          H78   1.106       .  S
C73          H79   1.086       .  S
C73         C374   1.363       .  D
C74         C373   1.364       .  D
C74         C205   1.475   1_565  S
C75          H80   1.087       .  S
C75         C376   1.360       .  D
C76         C375   1.363   1_545  D
C76         C124   1.478       .  S
O81          V89   1.892       .  S
O81         C691   1.263       .  A
O82          V89   1.896       .  S
O82         C692   1.263       .  A
O83          V89   1.904       .  S
O83         C693   1.267       .  A
O84          V89   1.903       .  S
O84         C694   1.266       .  A
O85          V90   1.897       .  S
O85          C94   1.264       .  A
O86          V90   1.895       .  S
O86          C93   1.263       .  A
O87          V90   1.901       .  S
O87          C92   1.265   1_455  A
O88          V90   1.906       .  S
O88          C91   1.266       .  A
V89         V690   2.086       .  T
V90         V689   2.085   1_455  T
C91         O681   1.263   1_455  A
C91         C268   1.483       .  S
C92         O682   1.264       .  A
C92         C136   1.480       .  S
C93         O683   1.266   1_455  A
C93         C148   1.485       .  S
C94         O684   1.266   1_455  A
C94         C253   1.481       .  S
O95         V703   1.909   1_455  S
O95         C105   1.267       .  A
O96         V103   1.910       .  S
O96         C106   1.267       .  A
O97         V103   1.911       .  S
O97         C107   1.267       .  A
O98         V703   1.908   1_455  S
O98         C108   1.267       .  A
O99         V704   1.888   1_455  S
O99         C108   1.263       .  A
O100        V104   1.888       .  S
O100        C107   1.262       .  A
O101        V104   1.890       .  S
O101        C106   1.263       .  A
O102        V704   1.892   1_455  S
O102        C105   1.264       .  A
V103        O695   1.909       .  S
V103        O698   1.908       .  S
V103        V104   2.084       .  T
V104        O699   1.888       .  S
V104        O702   1.892       .  S
C105        C229   1.488       .  S
C106        C181   1.488       .  S
C107        C241   1.487       .  S
C108        C193   1.484       .  S
C109        C110   1.402       .  A
C109        C714   1.409       .  A
C110        C111   1.399       .  A
C110        H115   1.084       .  S
C111        C112   1.417       .  A
C111        O116   1.373       .  S
C112        C713   1.411       .  A
C113        C114   1.400       .  A
C113        C712   1.411   1_455  A
C113        H117   1.077       .  S
C114        C709   1.409   1_455  A
C114        O118   1.372       .  S
O116        H120   0.992       .  S
O118        H119   0.992       .  S
C121        C122   1.404       .  A
C121        C726   1.409       .  A
C122        C123   1.403       .  A
C122        H127   1.084       .  S
C123        C124   1.408       .  A
C123        O128   1.372       .  S
C124        C725   1.401       .  A
C125        C126   1.395       .  A
C125        C724   1.401   1_455  A
C125        H129   1.084       .  S
C126        C721   1.409   1_455  A
C126        O130   1.372       .  S
O128        H132   0.992       .  S
O130        H131   0.991       .  S
C133        C134   1.404   1_655  A
C133        C738   1.411       .  A
C134        C135   1.398       .  A
C134        H139   1.084       .  S
C135        C136   1.410   1_455  A
C135        O140   1.371       .  S
C136        C737   1.405       .  A
C137        C138   1.399       .  A
C137        C736   1.405       .  A
C137        H141   1.084       .  S
C138        C733   1.411       .  A
C138        O142   1.372       .  S
O140        H144   0.993       .  S
O142        H143   0.993       .  S
C145        C146   1.405   1_655  A
C145        C750   1.412       .  A
C146        C147   1.399       .  A
C146        H151   1.083       .  S
C147        C148   1.413       .  A
C147        O152   1.372       .  S
C148        C749   1.405   1_455  A
C149        C150   1.400       .  A
C149        C748   1.405       .  A
C149        H153   1.083       .  S
C150        C745   1.412       .  A
C150        O154   1.371       .  S
O152        H156   0.992       .  S
O154        H155   0.992       .  S
C157        C158   1.405       .  A
C157        C762   1.410       .  A
C158        C159   1.397       .  A
C158        H163   1.083       .  S
C159        C160   1.410       .  A
C159        O164   1.372       .  S
C160        C761   1.406       .  A
C161        C162   1.399       .  A
C161        C760   1.406   1_455  A
C161        H165   1.083       .  S
C162        C757   1.410   1_455  A
C162        O166   1.372       .  S
O164        H168   0.992       .  S
O166        H167   0.992       .  S
C169        C170   1.405       .  A
C169        C774   1.412       .  A
C170        C171   1.401       .  A
C170        H175   1.083       .  S
C171        C172   1.412       .  A
C171        O176   1.371       .  S
C172        C773   1.405       .  A
C173        C174   1.399       .  A
C173        C772   1.405   1_455  A
C173        H177   1.083       .  S
C174        C769   1.412   1_455  A
C174        O178   1.372       .  S
O176        H180   0.992       .  S
O178        H179   0.992       .  S
C181        C182   1.408       .  A
C181        C186   1.412       .  A
C182        C183   1.406       .  A
C182        H187   1.083       .  S
C183        C184   1.413       .  A
C183        O188   1.371       .  S
C184        C185   1.403       .  A
C185        C186   1.394       .  A
C185        H189   1.083   1_545  S
C186        O190   1.372   1_545  S
O188        H192   0.991       .  S
O190        H191   0.991       .  S
C193        C194   1.405       .  A
C193        C198   1.411       .  A
C194        C195   1.396       .  A
C194        H499   1.083   1_545  S
C195        C196   1.412       .  A
C195        O500   1.372   1_545  S
C196        C197   1.407       .  A
C197        C198   1.403       .  A
C197        H201   1.083       .  S
C198        O202   1.371       .  S
H199        C494   1.083       .  S
O200        C495   1.372       .  S
O200        H204   0.993       .  S
O202        H203   0.992       .  S
C205        C210   1.408       .  A
C205        C506   1.400       .  A
C206        C505   1.400       .  A
C206        C507   1.398       .  A
C206        H211   1.079       .  S
C207        C208   1.406       .  A
C207        C506   1.398       .  A
C207        O512   1.372       .  S
C208        C209   1.401       .  A
C209        C210   1.402       .  A
C209        H213   1.084       .  S
C210        O214   1.372       .  S
O212        C507   1.372       .  S
O212        H216   0.992       .  S
O214        H215   0.992   1_545  S
C217        C218   1.399       .  A
C217        C222   1.403       .  A
C218        C219   1.404       .  A
C218        H223   1.084       .  S
C219        C220   1.415       .  A
C219        O224   1.371       .  S
C220        C221   1.412   1_545  A
C221        C222   1.399   1_565  A
C221        H225   1.083       .  S
C222        O226   1.372   1_545  S
O224        H228   0.992       .  S
O226        H227   0.991   1_565  S
C229        C230   1.405       .  A
C229        C234   1.412       .  A
C230        C231   1.397       .  A
C230        H235   1.083   1_545  S
C231        C232   1.412       .  A
C231        O236   1.372   1_545  S
C232        C233   1.407       .  A
C233        C234   1.404       .  A
C233        H237   1.083       .  S
C234        O238   1.371       .  S
O236        H240   0.992       .  S
O238        H239   0.992       .  S
C241        C242   1.407       .  A
C241        C246   1.413       .  A
C242        C243   1.405       .  A
C242        H247   1.083       .  S
C243        C244   1.412       .  A
C243        O248   1.371       .  S
C244        C245   1.403       .  A
C245        C246   1.395       .  A
C245        H549   1.083   1_545  S
C246        O550   1.372   1_545  S
O248        H252   0.992       .  S
H249        C545   1.083       .  S
O250        C546   1.372       .  S
O250        H251   0.992       .  S
C253        C254   1.406       .  A
C253        C858   1.411   1_455  A
C254        C255   1.398       .  A
C254        H259   1.084       .  S
C255        C256   1.406       .  A
C255        O260   1.372       .  S
C256        C857   1.400   1_455  A
C257        C258   1.403       .  A
C257        C856   1.401       .  A
C257        H261   1.082       .  S
C258        C853   1.410       .  A
C258        O262   1.371       .  S
O260        H264   0.992       .  S
O262        H263   0.992       .  S
C265        C601   1.538       .  S
C265        C270   1.418       .  A
C265        C866   1.411   1_455  A
C266        C267   1.399       .  A
C266        C865   1.411       .  A
C266        H271   1.075       .  S
C267        C868   1.408       .  A
C267        O272   1.372       .  S
C268        C269   1.402       .  A
C268        C867   1.408   1_455  A
C269        C270   1.403       .  A
C269        H273   1.084       .  S
C270        O274   1.372       .  S
O272        H276   0.992       .  S
O274        H275   0.992       .  S
C277        C282   1.407       .  A
C277        C578   1.399   1_545  A
C278        C279   1.403       .  A
C278        C577   1.399       .  A
C278        H283   1.084       .  S
C279        C580   1.416       .  A
C279        O284   1.373       .  S
C280        C281   1.408       .  A
C280        C579   1.417   1_545  A
C281        C282   1.405       .  A
C281        H285   1.083       .  S
C282        O286   1.372       .  S
O284        H288   0.992       .  S
O286        H287   0.992       .  S
C289        C290   1.403       .  A
C289        C294   1.407   1_545  A
C290        C291   1.408       .  A
C290        H295   1.082       .  S
C291        C292   1.413       .  A
C291        O296   1.371       .  S
C292        C293   1.406   1_545  A
C293        C294   1.396       .  A
C293        H297   1.084       .  S
C294        O298   1.372       .  S
O296        H300   0.992       .  S
O298        H299   0.991       .  S
C301        C302   1.540       .  S
C301        C307   1.532       .  S
C301        C905   1.538       .  S
C301       C1165   1.534       .  S
C302        H309   1.081       .  S
C303        C304   1.541       .  S
C303        C589   1.488       .  S
C304        C908   1.539       .  S
C304        C906   1.548       .  S
C304        H310   1.109       .  S
C305        C901   1.538   1_455  S
C305        H311   1.084       .  S
C306        C904   1.548       .  S
C306        C580   1.498       .  S
C307        H312   1.087       .  S
C307        C608   1.362   1_565  D
C308        C904   1.539       .  S
C308        C607   1.363       .  D
C308        C556   1.480   1_455  S
O313        V321   1.892       .  S
O314        V321   1.895   1_545  S
O315        V321   1.892   1_545  S
O316        V321   1.900       .  S
O317        V322   1.910       .  S
O317        C326   1.266       .  A
O318        V322   1.904       .  S
O318        C325   1.265       .  A
O319        V322   1.910       .  S
O319        C324   1.267       .  A
O320        V322   1.918       .  S
O320        C323   1.268       .  A
C323        C592   1.490       .  S
C324        C532   1.488       .  S
C325        C544   1.483       .  S
C326        C577   1.476       .  S
O327        V335   1.892       .  S
O328        V335   1.897   1_565  S
O329        V335   1.889       .  S
O330        V335   1.893       .  S
O331        V336   1.902       .  S
O331        C340   1.265       .  A
O332        V336   1.906       .  S
O332        C339   1.265       .  A
O333        V336   1.903       .  S
O333        C338   1.264       .  A
O334        V336   1.904       .  S
O334        C337   1.265       .  A
C337        C484   1.483       .  S
C338        C517   1.469       .  S
C339        C508   1.461       .  S
C340        C496   1.481       .  S
O341        C351   1.264       .  A
O342        V349   1.899   1_556  S
O342        C952   1.265       .  A
O343        V349   1.898       .  S
O343        C353   1.265       .  A
O344        C954   1.262       .  A
O345        C354   1.265   1_455  A
O346        V350   1.897       .  S
O346        C953   1.264   1_455  A
O347        V350   1.900   1_556  S
O347        C352   1.265   1_455  A
O348        C951   1.265   1_455  A
V349        V950   2.085       .  T
V350        V949   2.085   1_455  T
C351        O948   1.265       .  A
C351        C472   1.483       .  S
C352        O942   1.265       .  A
C352        C445   1.486       .  S
C353        O946   1.264       .  A
C353        C457   1.481       .  S
C354        O944   1.263       .  A
C354        C433   1.477       .  S
O355        V363   1.897       .  S
O355        C965   1.264   1_455  A
O356        V363   1.899       .  S
O356        C966   1.265   1_455  A
O357        V363   1.891       .  S
O357        C967   1.263   1_455  A
O358        V363   1.894       .  S
O358        C968   1.264   1_455  A
O359        V364   1.900       .  S
O359        C368   1.265       .  A
O360        V364   1.903       .  S
O360        C367   1.265       .  A
O361        V364   1.900       .  S
O361        C366   1.265       .  A
O362        V364   1.900       .  S
O362        C365   1.265       .  A
V363        V964   2.085   1_455  T
V364        V963   2.085       .  T
C365        O955   1.264       .  A
C365        C469   1.482       .  S
C366        O956   1.265       .  A
C366        C409   1.482       .  S
C367        O957   1.263       .  A
C367        C421   1.474       .  S
C368        O958   1.264       .  A
C368        C460   1.481       .  S
C369        C970   1.546       .  S
C369        C375   1.535       .  S
C369        C373   1.537       .  S
C369        C412   1.536       .  S
C370        C969   1.546   1_455  S
C370        H377   1.079       .  S
C371        C972   1.546       .  S
C371        C520   1.502       .  S
C372        C971   1.546       .  S
C372        C376   1.532       .  S
C372        C374   1.539       .  S
C372        H378   1.105       .  S
C373        H379   1.086       .  S
C374        C505   1.475       .  S
C375        H380   1.087       .  S
C376        C424   1.476       .  S
O381        V389   1.897       .  S
O381        C991   1.265       .  A
O382        V389   1.898       .  S
O382        C992   1.264       .  A
O383        V389   1.898       .  S
O383        C993   1.265       .  A
O384        V389   1.896       .  S
O384        C994   1.264       .  A
O385        V390   1.905       .  S
O385        C394   1.265   1_455  A
O386        V390   1.904       .  S
O386        C393   1.266   1_455  A
O387        V390   1.897       .  S
O387        C392   1.264   1_455  A
O388        V390   1.897       .  S
O388        C391   1.264   1_455  A
V389        V990   2.084       .  T
V390        V989   2.084   1_455  T
C391        O981   1.265       .  A
C391        C568   1.480       .  S
C392        O982   1.264       .  A
C392        C436   1.479       .  S
C393        O983   1.265       .  A
C393        C448   1.487       .  S
C394        O984   1.264       .  A
C394        C553   1.479       .  S
O395       V1003   1.906       .  S
O395        C405   1.266       .  A
O396        V403   1.906       .  S
O396        C406   1.266       .  A
O397        V403   1.905       .  S
O397        C407   1.266       .  A
O398       V1003   1.904       .  S
O398        C408   1.265       .  A
O399       V1004   1.886       .  S
O399        C408   1.263       .  A
O400        V404   1.888       .  S
O400        C407   1.262       .  A
O401        V404   1.891       .  S
O401        C406   1.263       .  A
O402       V1004   1.893       .  S
O402        C405   1.264       .  A
V403        O995   1.906       .  S
V403        O998   1.904       .  S
V403        V404   2.084       .  T
V404        O999   1.887       .  S
V404       O1002   1.892       .  S
C405        C529   1.486       .  S
C406        C481   1.485       .  S
C407        C541   1.483       .  S
C408        C493   1.480       .  S
C409        C410   1.402       .  A
C409       C1014   1.407       .  A
C410        C411   1.401       .  A
C410        H415   1.084       .  S
C411        C412   1.417       .  A
C411        O416   1.373       .  S
C412       C1013   1.412       .  A
C413       C1012   1.412   1_455  A
C413        C414   1.400       .  A
C413        H417   1.076       .  S
C414       C1009   1.407   1_455  A
C414        O418   1.372       .  S
O416        H420   0.992       .  S
O418        H419   0.992       .  S
C421        C422   1.404       .  A
C421       C1026   1.410       .  A
C422        C423   1.402       .  A
C422        H427   1.083       .  S
C423        C424   1.407       .  A
C423        O428   1.372       .  S
C424       C1025   1.401       .  A
C425       C1024   1.401       .  A
C425        C426   1.395       .  A
C425        H429   1.084       .  S
C426       C1021   1.410   1_455  A
C426        O430   1.372       .  S
O428        H432   0.992       .  S
O430        H431   0.991       .  S
C433        C434   1.403   1_655  A
C433       C1038   1.411       .  A
C434        C435   1.398       .  A
C434        H439   1.084       .  S
C435        C436   1.411   1_455  A
C435        O440   1.372       .  S
C436       C1037   1.404       .  A
C437       C1036   1.404       .  A
C437        C438   1.398       .  A
C437        H441   1.084       .  S
C438       C1033   1.411       .  A
C438        O442   1.372       .  S
O440        H444   0.992       .  S
O442        H443   0.993       .  S
C445        C446   1.406   1_655  A
C445       C1050   1.412       .  A
C446        C447   1.401       .  A
C446        H451   1.083       .  S
C447        C448   1.412   1_455  A
C447        O452   1.371       .  S
C448       C1049   1.406       .  A
C449       C1048   1.406       .  A
C449        C450   1.400       .  A
C449        H453   1.083       .  S
C450       C1045   1.412       .  A
C450        O454   1.372       .  S
O452        H456   0.992       .  S
O454        H455   0.992       .  S
C457        C458   1.405       .  A
C457       C1062   1.411       .  A
C458        C459   1.399       .  A
C458        H463   1.083       .  S
C459        C460   1.411       .  A
C459        O464   1.372       .  S
C460       C1061   1.405       .  A
C461       C1060   1.405   1_455  A
C461        C462   1.398       .  A
C461        H465   1.083       .  S
C462       C1057   1.411   1_455  A
C462        O466   1.372       .  S
O464        H468   0.992       .  S
O466        H467   0.992       .  S
C469        C470   1.405       .  A
C469       C1074   1.411       .  A
C470        C471   1.400       .  A
C470        H475   1.083       .  S
C471        C472   1.412       .  A
C471        O476   1.372       .  S
C472       C1073   1.405       .  A
C473       C1072   1.405   1_455  A
C473        C474   1.399       .  A
C473        H477   1.083       .  S
C474       C1069   1.411   1_455  A
C474        O478   1.372       .  S
O476        H480   0.993       .  S
O478        H479   0.992       .  S
C481        C482   1.407       .  A
C481        C486   1.412       .  A
C482        C483   1.404       .  A
C482        H487   1.083       .  S
C483        C484   1.412       .  A
C483        O488   1.372       .  S
C484        C485   1.403       .  A
C485        C486   1.394       .  A
C485        H489   1.083       .  S
C486        O490   1.372       .  S
O488        H492   0.991       .  S
O490        H491   0.991       .  S
C493        C494   1.404       .  A
C493        C498   1.411       .  A
C494        C495   1.394       .  A
C495        C496   1.411       .  A
C496        C497   1.406       .  A
C497        C498   1.401       .  A
C497        H501   1.083       .  S
C498        O502   1.371       .  S
O500        H504   0.993       .  S
O502        H503   0.992       .  S
C505        C510   1.408       .  A
C506        H511   1.081       .  S
C507        C508   1.405       .  A
C508        C509   1.400       .  A
C509        C510   1.400       .  A
C509        H513   1.084       .  S
C510        O514   1.372       .  S
O512        H516   0.991       .  S
O514        H515   0.992       .  S
C517        C518   1.398       .  A
C517        C522   1.402       .  A
C518        C519   1.404       .  A
C518        H523   1.084       .  S
C519        C520   1.417       .  A
C519        O524   1.371       .  S
C520        C521   1.412       .  A
C521        C522   1.397       .  A
C521        H525   1.082       .  S
C522        O526   1.372       .  S
O524        H528   0.992       .  S
O526        H527   0.991       .  S
C529        C530   1.404       .  A
C529        C534   1.412       .  A
C530        C531   1.397       .  A
C530        H535   1.083       .  S
C531        C532   1.413       .  A
C531        O536   1.372       .  S
C532        C533   1.407       .  A
C533        C534   1.404       .  A
C533        H537   1.083       .  S
C534        O538   1.371       .  S
O536        H540   0.992       .  S
O538        H539   0.992       .  S
C541        C542   1.406       .  A
C541        C546   1.412       .  A
C542        C543   1.402       .  A
C542        H547   1.083       .  S
C543        C544   1.412       .  A
C543        O548   1.371       .  S
C544        C545   1.404       .  A
C545        C546   1.395       .  A
O548        H552   0.992       .  S
O550        H551   0.992       .  S
C553        C554   1.407   1_655  A
C553       C1158   1.410       .  A
C554        C555   1.405       .  A
C554        H559   1.083       .  S
C555        C556   1.407   1_455  A
C555        O560   1.371       .  S
C556       C1157   1.402       .  A
C557       C1156   1.402       .  A
C557        C558   1.396       .  A
C557        H561   1.084       .  S
C558       C1153   1.410       .  A
C558        O562   1.372       .  S
O560        H564   0.992       .  S
O562        H563   0.992       .  S
C565        C901   1.535       .  S
C565       C1166   1.412       .  A
C565        C570   1.416   1_655  A
C566       C1165   1.412       .  A
C566        C567   1.399       .  A
C566        H571   1.075       .  S
C567       C1168   1.407       .  A
C567        O572   1.372       .  S
C568       C1167   1.406       .  A
C568        C569   1.403   1_655  A
C569        C570   1.401       .  A
C569        H573   1.084       .  S
C570        O574   1.373       .  S
O572        H576   0.992       .  S
O574        H575   0.992       .  S
C577        C582   1.406       .  A
C578        C579   1.403       .  A
C578        H583   1.084       .  S
C579        O584   1.373       .  S
C580        C581   1.408       .  A
C581        C582   1.404       .  A
C581        H585   1.082       .  S
C582        O586   1.372       .  S
O584        H588   0.992       .  S
O586        H587   0.992       .  S
C589        C590   1.406       .  A
C589        C594   1.408       .  A
C590        C591   1.410       .  A
C590        H595   1.083       .  S
C591        C592   1.414       .  A
C591        O596   1.371       .  S
C592        C593   1.406       .  A
C593        C594   1.393       .  A
C593        H597   1.083       .  S
C594        O598   1.372       .  S
O596        H600   0.992       .  S
O598        H599   0.992       .  S
C601        C602   1.541   1_455  S
C601        C607   1.531       .  S
C602        H609   1.080       .  S
C602        C903   1.367       .  D
C603        C604   1.541   1_665  S
C603        C902   1.364       .  D
C603        C889   1.484   1_565  S
C604        H610   1.110       .  S
C605        H611   1.084       .  S
C605        C906   1.371       .  D
C606        C905   1.372       .  D
C606        C880   1.499   1_565  S
C607        H612   1.087   1_455  S
C608        C856   1.479       .  S
O613        V621   1.887       .  S
O613        C923   1.263       .  A
O614        V621   1.892       .  S
O614        C924   1.263       .  A
O615        V621   1.891       .  S
O615        C925   1.264       .  A
O616        V621   1.898       .  S
O616        C926   1.263       .  A
O617        V622   1.911       .  S
O617        C626   1.266       .  A
O618        V622   1.908       .  S
O618        C625   1.266       .  A
O619        V622   1.907       .  S
O619        C624   1.267       .  A
O620        V622   1.915       .  S
O620        C623   1.268       .  A
V621        V922   2.084       .  T
V622        V921   2.083   1_545  T
C623        O913   1.264   1_545  A
C623        C892   1.488       .  S
C624        O914   1.264       .  A
C624        C832   1.488       .  S
C625        O915   1.264       .  A
C625        C844   1.486       .  S
C626        O916   1.264   1_545  A
C626        C877   1.478       .  S
O627        V635   1.891       .  S
O627        C937   1.264       .  A
O628        V635   1.893       .  S
O628        C938   1.263       .  A
O629        V635   1.886       .  S
O629        C939   1.260       .  A
O630        V635   1.889       .  S
O630        C940   1.263       .  A
O631        V636   1.904       .  S
O631        C640   1.266       .  A
O632        V636   1.909       .  S
O632        C639   1.265       .  A
O633        V636   1.905       .  S
O633        C638   1.265       .  A
O634        V636   1.909       .  S
O634        C637   1.266       .  A
V635        V936   2.086       .  T
V636        V935   2.085       .  T
C637        O927   1.265       .  A
C637        C784   1.486       .  S
C638        O928   1.263   1_545  A
C638        C817   1.471       .  S
C639        O929   1.261       .  A
C639        C808   1.465       .  S
C640        O930   1.264       .  A
C640        C796   1.484       .  S
O641        V949   1.900   1_545  S
O641        C651   1.265       .  A
O642        V649   1.897   1_556  S
O643        V649   1.893       .  S
O643        C653   1.264       .  A
O644        V949   1.897   1_546  S
O645        V950   1.896   1_546  S
O645        C654   1.264       .  A
O646        V650   1.901       .  S
O647        V650   1.899   1_556  S
O647        C652   1.265       .  A
O648        V950   1.901   1_545  S
V649        O941   1.897       .  S
V649        O944   1.892   1_554  S
V650        O945   1.900   1_554  S
V650        O948   1.899       .  S
C651        C772   1.485       .  S
C652        C745   1.484       .  S
C653        C757   1.480       .  S
C654        C733   1.479       .  S
O655        V663   1.897       .  S
O656        V663   1.898       .  S
O657        V663   1.891       .  S
O658        V663   1.894       .  S
O659        V664   1.899       .  S
O659        C668   1.265       .  A
O660        V664   1.903       .  S
O660        C667   1.265       .  A
O661        V664   1.899       .  S
O661        C666   1.265       .  A
O662        V664   1.902       .  S
O662        C665   1.266       .  A
C665        C769   1.484       .  S
C666        C709   1.483       .  S
C667        C721   1.474       .  S
C668        C760   1.480       .  S
C669        C675   1.532       .  S
C669        C673   1.534   1_455  S
C669        C712   1.532   1_455  S
C670        H677   1.080       .  S
C670        C971   1.375       .  D
C671        C970   1.372       .  D
C671        C820   1.501   1_565  S
C672        C676   1.533       .  S
C672        C674   1.537   1_545  S
C672        H678   1.106       .  S
C673        H679   1.086       .  S
C673        C974   1.363       .  D
C674        C973   1.364       .  D
C674        C805   1.475   1_565  S
C675        H680   1.087       .  S
C675        C976   1.360   1_455  D
C676        C975   1.363   1_545  D
C676        C724   1.478       .  S
O681        V689   1.893       .  S
O682        V689   1.897       .  S
O683        V689   1.903       .  S
O684        V689   1.902       .  S
O685        V690   1.895       .  S
O685        C694   1.263       .  A
O686        V690   1.894       .  S
O686        C693   1.263       .  A
O687        V690   1.900       .  S
O687        C692   1.265       .  A
O688        V690   1.906       .  S
O688        C691   1.266       .  A
C691        C868   1.482       .  S
C692        C736   1.480       .  S
C693        C748   1.485       .  S
C694        C853   1.477       .  S
O695        C705   1.267       .  A
O696        V703   1.910       .  S
O696        C706   1.267       .  A
O697        V703   1.911       .  S
O697        C707   1.267       .  A
O698        C708   1.267       .  A
O699        C708   1.263       .  A
O700        V704   1.888       .  S
O700        C707   1.262       .  A
O701        V704   1.890       .  S
O701        C706   1.263       .  A
O702        C705   1.264       .  A
V703        V704   2.084       .  T
C705        C829   1.487       .  S
C706        C781   1.488       .  S
C707        C841   1.487       .  S
C708        C793   1.484       .  S
C709        C710   1.402       .  A
C710        C711   1.399       .  A
C710        H715   1.084       .  S
C711        C712   1.417       .  A
C711        O716   1.373       .  S
C713        C714   1.401       .  A
C713        H717   1.077       .  S
C714        O718   1.372       .  S
O716        H720   0.992       .  S
O718        H719   0.992       .  S
C721        C722   1.404       .  A
C722        C723   1.403       .  A
C722        H727   1.084       .  S
C723        C724   1.408       .  A
C723        O728   1.372       .  S
C725        C726   1.395       .  A
C725        H729   1.084       .  S
C726        O730   1.372       .  S
O728        H732   0.992       .  S
O730        H731   0.991       .  S
C733        C734   1.404       .  A
C734        C735   1.398       .  A
C734        H739   1.084       .  S
C735        C736   1.410       .  A
C735        O740   1.372       .  S
C737        C738   1.400       .  A
C737        H741   1.083       .  S
C738        O742   1.372       .  S
O740        H744   0.993       .  S
O742        H743   0.993       .  S
C745        C746   1.405       .  A
C746        C747   1.399       .  A
C746        H751   1.083       .  S
C747        C748   1.413       .  A
C747        O752   1.372       .  S
C749        C750   1.400       .  A
C749        H753   1.083       .  S
C750        O754   1.372       .  S
O752        H756   0.992       .  S
O754        H755   0.992       .  S
C757        C758   1.405       .  A
C758        C759   1.397       .  A
C758        H763   1.083       .  S
C759        C760   1.410       .  A
C759        O764   1.372       .  S
C761        C762   1.399       .  A
C761        H765   1.083       .  S
C762        O766   1.372       .  S
O764        H768   0.992       .  S
O766        H767   0.992       .  S
C769        C770   1.405       .  A
C770        C771   1.401       .  A
C770        H775   1.083       .  S
C771        C772   1.412       .  A
C771        O776   1.371       .  S
C773        C774   1.399       .  A
C773        H777   1.083       .  S
C774        O778   1.372       .  S
O776        H780   0.992       .  S
O778        H779   0.992       .  S
C781        C782   1.408       .  A
C781        C786   1.412       .  A
C782        C783   1.406       .  A
C782        H787   1.083       .  S
C783        C784   1.413       .  A
C783        O788   1.371       .  S
C784        C785   1.403       .  A
C785        C786   1.395       .  A
C785        H789   1.083   1_545  S
C786        O790   1.372   1_545  S
O788        H792   0.991       .  S
O790        H791   0.991       .  S
C793        C794   1.405       .  A
C793        C798   1.411       .  A
C794        C795   1.396       .  A
C794       H1099   1.083   1_545  S
C795        C796   1.412       .  A
C795       O1100   1.372   1_545  S
C796        C797   1.407       .  A
C797        C798   1.403       .  A
C797        H801   1.083       .  S
C798        O802   1.371       .  S
H799       C1094   1.083       .  S
O800       C1095   1.372       .  S
O800        H804   0.993       .  S
O802        H803   0.992       .  S
C805       C1106   1.399       .  A
C805        C810   1.408       .  A
C806       C1105   1.400       .  A
C806       C1107   1.398       .  A
C806        H811   1.079       .  S
C807       C1106   1.398       .  A
C807        C808   1.406       .  A
C807       O1112   1.372       .  S
C808        C809   1.401       .  A
C809        C810   1.402       .  A
C809        H813   1.084       .  S
C810        O814   1.372       .  S
O812       C1107   1.372       .  S
O812        H816   0.992       .  S
O814        H815   0.992   1_545  S
C817        C818   1.399       .  A
C817        C822   1.403       .  A
C818        C819   1.404       .  A
C818        H823   1.084       .  S
C819        C820   1.415       .  A
C819        O824   1.371       .  S
C820        C821   1.412   1_545  A
C821        C822   1.399   1_565  A
C821        H825   1.082       .  S
C822        O826   1.372   1_545  S
O824        H828   0.992       .  S
O826        H827   0.991   1_565  S
C829        C830   1.405       .  A
C829        C834   1.412       .  A
C830        C831   1.397       .  A
C830        H835   1.083   1_545  S
C831        C832   1.412       .  A
C831        O836   1.372   1_545  S
C832        C833   1.407       .  A
C833        C834   1.404       .  A
C833        H837   1.083       .  S
C834        O838   1.371       .  S
O836        H840   0.992       .  S
O838        H839   0.992       .  S
C841        C842   1.407       .  A
C841        C846   1.413       .  A
C842        C843   1.405       .  A
C842        H847   1.083       .  S
C843        C844   1.412       .  A
C843        O848   1.371       .  S
C844        C845   1.403       .  A
C845        C846   1.395       .  A
C845       H1149   1.083   1_545  S
C846       O1150   1.372   1_545  S
O848        H852   0.992       .  S
H849       C1145   1.083       .  S
O850       C1146   1.372       .  S
O850        H851   0.992       .  S
C853        C854   1.404       .  A
C854        C855   1.397       .  A
C854        H859   1.084       .  S
C855        C856   1.408       .  A
C855        O860   1.372       .  S
C857        C858   1.402       .  A
C857        H861   1.082       .  S
C858        O862   1.371       .  S
O860        H864   0.992       .  S
O862        H863   0.992       .  S
C865        C870   1.418       .  A
C866        C867   1.399       .  A
C866        H871   1.075       .  S
C867        O872   1.372       .  S
C868        C869   1.402       .  A
C869        C870   1.403       .  A
C869        H873   1.084       .  S
C870        O874   1.372       .  S
O872        H876   0.992       .  S
O874        H875   0.992       .  S
C877       C1178   1.399   1_545  A
C877        C882   1.407       .  A
C878       C1177   1.399       .  A
C878        C879   1.403       .  A
C878        H883   1.084       .  S
C879       C1180   1.416       .  A
C879        O884   1.373       .  S
C880       C1179   1.417   1_545  A
C880        C881   1.408       .  A
C881        C882   1.405       .  A
C881        H885   1.083       .  S
C882        O886   1.372       .  S
O884        H888   0.992       .  S
O886        H887   0.992       .  S
C889        C890   1.404       .  A
C889        C894   1.407   1_545  A
C890        C891   1.408       .  A
C890        H895   1.082       .  S
C891        C892   1.413       .  A
C891        O896   1.371       .  S
C892        C893   1.406   1_545  A
C893        C894   1.395       .  A
C893        H897   1.083       .  S
C894        O898   1.372       .  S
O896        H900   0.992       .  S
O898        H899   0.991       .  S
C901        C902   1.541       .  S
C901        C907   1.533       .  S
C902        H909   1.080       .  S
C903        C904   1.541   1_655  S
C903       C1189   1.488       .  S
C904        H910   1.109       .  S
C905        H911   1.084       .  S
C906       C1180   1.498       .  S
C907        H912   1.087       .  S
C908       C1156   1.480       .  S
O913        V921   1.891       .  S
O914        V921   1.894   1_545  S
O915        V921   1.892   1_545  S
O916        V921   1.900       .  S
O917        V922   1.910       .  S
O917        C926   1.266       .  A
O918        V922   1.903       .  S
O918        C925   1.265       .  A
O919        V922   1.909       .  S
O919        C924   1.267       .  A
O920        V922   1.917       .  S
O920        C923   1.268       .  A
C923       C1192   1.489       .  S
C924       C1132   1.488       .  S
C925       C1144   1.483       .  S
C926       C1177   1.475       .  S
O927        V935   1.891       .  S
O928        V935   1.896   1_565  S
O929        V935   1.889       .  S
O930        V935   1.893       .  S
O931        V936   1.902       .  S
O931        C940   1.265       .  A
O932        V936   1.906       .  S
O932        C939   1.265       .  A
O933        V936   1.904       .  S
O933        C938   1.264       .  A
O934        V936   1.904       .  S
O934        C937   1.265       .  A
C937       C1084   1.483       .  S
C938       C1117   1.469       .  S
C939       C1108   1.461       .  S
C940       C1096   1.481       .  S
O941        C951   1.264       .  A
O942        V949   1.899   1_556  S
O943        V949   1.898       .  S
O943        C953   1.265       .  A
O945        C954   1.265       .  A
O946        V950   1.897       .  S
O947        V950   1.900   1_556  S
O947        C952   1.265       .  A
C951       C1072   1.482       .  S
C952       C1045   1.487       .  S
C953       C1057   1.481       .  S
C954       C1033   1.477       .  S
O955        V963   1.897       .  S
O956        V963   1.899       .  S
O957        V963   1.892       .  S
O958        V963   1.894       .  S
O959        V964   1.900       .  S
O959        C968   1.265       .  A
O960        V964   1.903       .  S
O960        C967   1.265       .  A
O961        V964   1.900       .  S
O961        C966   1.265       .  A
O962        V964   1.900       .  S
O962        C965   1.265       .  A
C965       C1069   1.482       .  S
C966       C1009   1.482       .  S
C967       C1021   1.474       .  S
C968       C1060   1.481       .  S
C969        C975   1.535       .  S
C969        C973   1.537       .  S
C969       C1012   1.536       .  S
C970        H977   1.079       .  S
C971       C1120   1.503       .  S
C972        C976   1.532   1_455  S
C972        C974   1.539   1_455  S
C972        H978   1.105   1_455  S
C973        H979   1.086       .  S
C974       C1105   1.474       .  S
C975        H980   1.087       .  S
C976       C1024   1.476   1_655  S
O981        V989   1.897       .  S
O982        V989   1.898       .  S
O983        V989   1.898       .  S
O984        V989   1.895       .  S
O985        V990   1.904       .  S
O985        C994   1.265       .  A
O986        V990   1.903       .  S
O986        C993   1.266       .  A
O987        V990   1.897       .  S
O987        C992   1.264       .  A
O988        V990   1.897       .  S
O988        C991   1.264       .  A
C991       C1168   1.480       .  S
C992       C1036   1.479       .  S
C993       C1048   1.487       .  S
C994       C1153   1.479       .  S
O995       C1005   1.266       .  A
O996       V1003   1.906   1_655  S
O996       C1006   1.266       .  A
O997       V1003   1.904   1_655  S
O997       C1007   1.266       .  A
O998       C1008   1.265       .  A
O999       C1008   1.263       .  A
O1000      V1004   1.888   1_655  S
O1000      C1007   1.262       .  A
O1001      V1004   1.891   1_655  S
O1001      C1006   1.263       .  A
O1002      C1005   1.264       .  A
V1003      V1004   2.084       .  T
C1005      C1129   1.486       .  S
C1006      C1081   1.485       .  S
C1007      C1141   1.483       .  S
C1008      C1093   1.480       .  S
C1009      C1010   1.402       .  A
C1010      C1011   1.401       .  A
C1010      H1015   1.084       .  S
C1011      C1012   1.417       .  A
C1011      O1016   1.373       .  S
C1013      C1014   1.400       .  A
C1013      H1017   1.076       .  S
C1014      O1018   1.372       .  S
O1016      H1020   0.992       .  S
O1018      H1019   0.992       .  S
C1021      C1022   1.404       .  A
C1022      C1023   1.402       .  A
C1022      H1027   1.083       .  S
C1023      C1024   1.407   1_655  A
C1023      O1028   1.372       .  S
C1025      C1026   1.395       .  A
C1025      H1029   1.084       .  S
C1026      O1030   1.372       .  S
O1028      H1032   0.992       .  S
O1030      H1031   0.991       .  S
C1033      C1034   1.403       .  A
C1034      C1035   1.398       .  A
C1034      H1039   1.084       .  S
C1035      C1036   1.411       .  A
C1035      O1040   1.372       .  S
C1037      C1038   1.398       .  A
C1037      H1041   1.083       .  S
C1038      O1042   1.372       .  S
O1040      H1044   0.993       .  S
O1042      H1043   0.993       .  S
C1045      C1046   1.406       .  A
C1046      C1047   1.401       .  A
C1046      H1051   1.083       .  S
C1047      C1048   1.412       .  A
C1047      O1052   1.371       .  S
C1049      C1050   1.400       .  A
C1049      H1053   1.083       .  S
C1050      O1054   1.372       .  S
O1052      H1056   0.992       .  S
O1054      H1055   0.992       .  S
C1057      C1058   1.405       .  A
C1058      C1059   1.399       .  A
C1058      H1063   1.083       .  S
C1059      C1060   1.411       .  A
C1059      O1064   1.372       .  S
C1061      C1062   1.398       .  A
C1061      H1065   1.083       .  S
C1062      O1066   1.372       .  S
O1064      H1068   0.992       .  S
O1066      H1067   0.992       .  S
C1069      C1070   1.405       .  A
C1070      C1071   1.399       .  A
C1070      H1075   1.083       .  S
C1071      C1072   1.412       .  A
C1071      O1076   1.372       .  S
C1073      C1074   1.399       .  A
C1073      H1077   1.083       .  S
C1074      O1078   1.372       .  S
O1076      H1080   0.993       .  S
O1078      H1079   0.992       .  S
C1081      C1082   1.407       .  A
C1081      C1086   1.412       .  A
C1082      C1083   1.404       .  A
C1082      H1087   1.083       .  S
C1083      C1084   1.412       .  A
C1083      O1088   1.372       .  S
C1084      C1085   1.403       .  A
C1085      C1086   1.395       .  A
C1085      H1089   1.083       .  S
C1086      O1090   1.372       .  S
O1088      H1092   0.991       .  S
O1090      H1091   0.991       .  S
C1093      C1094   1.404       .  A
C1093      C1098   1.411       .  A
C1094      C1095   1.394       .  A
C1095      C1096   1.411       .  A
C1096      C1097   1.406       .  A
C1097      C1098   1.401       .  A
C1097      H1101   1.083       .  S
C1098      O1102   1.371       .  S
O1100      H1104   0.993       .  S
O1102      H1103   0.992       .  S
C1105      C1110   1.408       .  A
C1106      H1111   1.081       .  S
C1107      C1108   1.405       .  A
C1108      C1109   1.400       .  A
C1109      C1110   1.400       .  A
C1109      H1113   1.084       .  S
C1110      O1114   1.372       .  S
O1112      H1116   0.992       .  S
O1114      H1115   0.992       .  S
C1117      C1118   1.398       .  A
C1117      C1122   1.402       .  A
C1118      C1119   1.405       .  A
C1118      H1123   1.084       .  S
C1119      C1120   1.418       .  A
C1119      O1124   1.371       .  S
C1120      C1121   1.412       .  A
C1121      C1122   1.397       .  A
C1121      H1125   1.082       .  S
C1122      O1126   1.372       .  S
O1124      H1128   0.992       .  S
O1126      H1127   0.991       .  S
C1129      C1130   1.404       .  A
C1129      C1134   1.412       .  A
C1130      C1131   1.396       .  A
C1130      H1135   1.083       .  S
C1131      C1132   1.413       .  A
C1131      O1136   1.372       .  S
C1132      C1133   1.407       .  A
C1133      C1134   1.404       .  A
C1133      H1137   1.083       .  S
C1134      O1138   1.371       .  S
O1136      H1140   0.992       .  S
O1138      H1139   0.992       .  S
C1141      C1142   1.406       .  A
C1141      C1146   1.412       .  A
C1142      C1143   1.402       .  A
C1142      H1147   1.083       .  S
C1143      C1144   1.412       .  A
C1143      O1148   1.371       .  S
C1144      C1145   1.404       .  A
C1145      C1146   1.395       .  A
O1148      H1152   0.992       .  S
O1150      H1151   0.992       .  S
C1153      C1154   1.407       .  A
C1154      C1155   1.405       .  A
C1154      H1159   1.083       .  S
C1155      C1156   1.407       .  A
C1155      O1160   1.371       .  S
C1157      C1158   1.396       .  A
C1157      H1161   1.084       .  S
C1158      O1162   1.372       .  S
O1160      H1164   0.992       .  S
O1162      H1163   0.992       .  S
C1165      C1170   1.416       .  A
C1166      C1167   1.398       .  A
C1166      H1171   1.075       .  S
C1167      O1172   1.372       .  S
C1168      C1169   1.403       .  A
C1169      C1170   1.400       .  A
C1169      H1173   1.084       .  S
C1170      O1174   1.373       .  S
O1172      H1176   0.992       .  S
O1174      H1175   0.992       .  S
C1177      C1182   1.406       .  A
C1178      C1179   1.403       .  A
C1178      H1183   1.084       .  S
C1179      O1184   1.372       .  S
C1180      C1181   1.408       .  A
C1181      C1182   1.404       .  A
C1181      H1185   1.082       .  S
C1182      O1186   1.372       .  S
O1184      H1188   0.992       .  S
O1186      H1187   0.992       .  S
C1189      C1190   1.406       .  A
C1189      C1194   1.408       .  A
C1190      C1191   1.410       .  A
C1190      H1195   1.083       .  S
C1191      C1192   1.414       .  A
C1191      O1196   1.371       .  S
C1192      C1193   1.406       .  A
C1193      C1194   1.393       .  A
C1193      H1197   1.083       .  S
C1194      O1198   1.372       .  S
O1196      H1200   0.992       .  S
O1198      H1199   0.992       .  S
