geometry optimzed in LAMMPS
_audit_creation_date              2020-11-30 
_audit_creation_method            'lammps2cif' 
_symmetry_space_group_name_H-M    'P1' 
_symmetry_Int_Tables_number       1 
_symmetry_cell_setting            triclinic 
loop_ 
_symmetry_equiv_pos_as_xyz 
  x,y,z 
_cell_length_a                    36.82418404 
_cell_length_b                    36.932144356337645 
_cell_length_c                    59.391593567616184 
_cell_angle_alpha                 90.16979347406406 
_cell_angle_beta                  90.0467403566111 
_cell_angle_gamma                 89.65480878925727 
loop_ 
_atom_site_label 
_atom_site_type_symbol 
_atom_site_fract_x 
_atom_site_fract_y 
_atom_site_fract_z 
_atom_site_charge 
O1          O  0.49813354  0.41556770  0.20679384    -0.72900
O2          O  0.49652665  0.42830722  0.13915186    -0.73900
O3          O  0.53030933  0.38037355  0.16958758    -0.62500
O4          O  0.45203390  0.96664170  0.17204259    -0.70900
O5          O  0.95539582  0.13131899  0.16297558    -0.70500
O6          O  0.01689389  0.55176200  0.16491563    -0.61700
O7          O  0.98918916  0.09208964  0.12706285    -0.74200
O8          O  0.98888332  0.08633880  0.19504954    -0.73000
Cu9        Cu  0.49539589  0.42083962  0.17284322     1.04600
Cu10       Cu  0.99079203  0.09062245  0.16113857     1.04300
C11         C  0.52306969  0.43065993  0.21850447     0.93300
C12         C  0.96511295  0.07503018  0.11578068     0.92400
C13         C  0.00295262  0.52029303  0.16418074     0.84600
C14         C  0.92098138  0.12731812  0.16350517     0.90800
O15         O  0.95477636  0.26376547  0.16171907    -0.72900
O16         O  0.02075953  0.34886379  0.15726091    -0.73900
O17         O  0.99598054  0.30466737  0.19271513    -0.62500
O18         O  0.97930645  0.30717166  0.12583388    -0.70900
O19         O  0.48205746  0.21306535  0.13928728    -0.70500
O20         O  0.49449107  0.20596489  0.20640565    -0.61700
O21         O  0.52383216  0.25002071  0.17204487    -0.74200
O22         O  0.45306243  0.16882522  0.17371887    -0.73000
Cu23       Cu  0.98932064  0.30481767  0.15914862     1.04600
Cu24       Cu  0.48684417  0.21090452  0.17302222     1.04300
C25         C  0.92077083  0.26761393  0.16533596     0.93300
C26         C  0.00609832  0.37996850  0.15968819     0.92400
C27         C  0.52039501  0.18721812  0.21485490     0.84600
C28         C  0.95207108  0.32441482  0.11783422     0.90800
O29         O  0.34477254  0.08000271  0.16256451    -0.72900
O30         O  0.29178125  0.50402622  0.16518064    -0.73900
O31         O  0.31103761  0.04097106  0.12676331    -0.62500
O32         O  0.30424817  0.03909967  0.19461730    -0.70900
O33         O  0.25936130  0.07942933  0.19369448    -0.70500
O34         O  0.26446359  0.07942284  0.12567730    -0.61700
O35         O  0.24154133  0.53782494  0.16461402    -0.74200
O36         O  0.29877442  0.11920776  0.16086317    -0.73000
Cu37       Cu  0.30966950  0.03895049  0.16078671     1.04600
Cu38       Cu  0.26052905  0.08098220  0.15965351     1.04300
C39         C  0.33279968  0.11240312  0.16215491     0.93300
C40         C  0.25725181  0.50701404  0.16509456     0.92400
C41         C  0.28818817  0.05990774  0.11556945     0.84600
C42         C  0.28021831  0.05820310  0.20481879     0.90800
O43         O  0.28417345  0.29384407  0.19703611    -0.72900
O44         O  0.28106429  0.29011050  0.12933296    -0.73900
O45         O  0.31445099  0.24877531  0.16360002    -0.62500
O46         O  0.24995937  0.33508588  0.16310638    -0.70900
O47         O  0.29947508  0.36916566  0.16096679    -0.70500
O48         O  0.36465521  0.28194672  0.16292230    -0.61700
O49         O  0.33119229  0.32320120  0.12788325    -0.74200
O50         O  0.33256149  0.32934416  0.19583607    -0.73000
Cu51       Cu  0.28081350  0.29067405  0.16327965     1.04600
Cu52       Cu  0.33375904  0.32719409  0.16180416     1.04300
C53         C  0.30834996  0.31261878  0.20712078     0.93300
C54         C  0.30567260  0.30605727  0.11799291     0.92400
C55         C  0.34898093  0.25125025  0.16355310     0.84600
C56         C  0.26499740  0.36595847  0.16223043     0.90800
O57         O  0.53042272  0.94339744  0.39109108    -0.72900
O58         O  0.54069898  0.93628118  0.32394250    -0.73900
O59         O  0.50016725  0.97952479  0.35386165    -0.62500
O60         O  0.01765847  0.06986408  0.34785726    -0.70900
O61         O  0.01840478  0.52207093  0.34248735    -0.70500
O62         O  0.46330436  0.43555647  0.35496050    -0.61700
O63         O  0.50539624  0.39271811  0.32598653    -0.74200
O64         O  0.49337252  0.40269760  0.39364719    -0.73000
Cu65       Cu  0.53744601  0.94057966  0.35767341     1.04600
Cu66       Cu  0.49824396  0.39547118  0.35979536     1.04300
C67         C  0.51183745  0.42661227  0.40422099     0.93300
C68         C  0.52740478  0.41379717  0.31578633     0.92400
C69         C  0.47224652  0.46882295  0.35378134     0.84600
C70         C  0.03794235  0.55025054  0.34497492     0.90800
O71         O  0.55512467  0.21923320  0.38936902    -0.72900
O72         O  0.55802520  0.20474230  0.32176911    -0.73900
O73         O  0.52929839  0.25773868  0.35174320    -0.62500
O74         O  0.05162930  0.32906328  0.34872915    -0.70900
O75         O  0.05687597  0.27000239  0.34240329    -0.70500
O76         O  0.47877493  0.22516580  0.35414653    -0.61700
O77         O  0.50709380  0.17314770  0.32397287    -0.74200
O78         O  0.50518364  0.18588263  0.39117620    -0.73000
Cu79       Cu  0.55871739  0.21297031  0.35556864     1.04600
Cu80       Cu  0.50475862  0.17802747  0.35769913     1.04300
C81         C  0.52924570  0.20534865  0.40072701     0.93300
C82         C  0.53217251  0.18753256  0.31217244     0.92400
C83         C  0.49486973  0.25555894  0.35218431     0.84600
C84         C  0.07125225  0.30099384  0.34521101     0.90800
O85         O  0.26722549  0.51360921  0.31239370    -0.72900
O86         O  0.25727599  0.49429187  0.37879796    -0.73900
O87         O  0.20849597  0.50825753  0.34315648    -0.62500
O88         O  0.31514845  0.50027633  0.34734689    -0.70900
O89         O  0.31425081  0.05801168  0.34945271    -0.70500
O90         O  0.20631815  0.06124560  0.34719237    -0.61700
O91         O  0.25773002  0.05101215  0.38209387    -0.74200
O92         O  0.26219647  0.06750563  0.31458110    -0.73000
Cu93       Cu  0.26185408  0.50212923  0.34527789     1.04600
Cu94       Cu  0.26015841  0.06157396  0.34857525     1.04300
C95         C  0.27175177  0.54584238  0.30517590     0.93300
C96         C  0.25752625  0.52064578  0.39276246     0.92400
C97         C  0.19334189  0.53910829  0.34577217     0.84600
C98         C  0.33468021  0.52823599  0.35046602     0.90800
O99         O  0.34838491  0.35186478  0.35232325    -0.72900
O100        O  0.24108771  0.34318247  0.34698324    -0.73900
O101        O  0.28990002  0.34414137  0.38401982    -0.62500
O102        O  0.29919149  0.34885461  0.31552991    -0.70900
O103        O  0.30229568  0.28888587  0.31502009    -0.70500
O104        O  0.29476615  0.28426041  0.38204704    -0.61700
O105        O  0.24532413  0.28321567  0.34601565    -0.74200
O106        O  0.35209455  0.29173955  0.35058402    -0.73000
Cu107      Cu  0.29447442  0.34924022  0.34982422     1.04600
Cu108      Cu  0.29890196  0.28504715  0.34842157     1.04300
C109        C  0.36705863  0.32278833  0.35159076     0.93300
C110        C  0.22621619  0.31213374  0.34570992     0.92400
C111        C  0.29037050  0.31307339  0.39360744     0.84600
C112        C  0.30187795  0.31900067  0.30454472     0.90800
O113        O  0.48753553  0.42812736  0.48460808    -0.72900
O114        O  0.48215961  0.45135461  0.55051288    -0.73900
O115        O  0.42955006  0.45060170  0.51447719    -0.62500
O116        O  0.04251484  0.46966598  0.49883052    -0.70900
O117        O  0.04479705  0.02748249  0.50128425    -0.70500
O118        O  0.43911099  0.00766695  0.50426177    -0.61700
O119        O  0.49178388  0.01105800  0.53976275    -0.74200
O120        O  0.49505904  0.98444531  0.47333428    -0.73000
Cu121      Cu  0.48432962  0.43836309  0.51770670     1.04600
Cu122      Cu  0.49359138  0.00019957  0.50617406     1.04300
C123        C  0.49470595  0.45290856  0.47044362     0.93300
C124        C  0.48604432  0.98587530  0.55405978     0.92400
C125        C  0.41860366  0.48300026  0.51022882     0.84600
C126        C  0.06231694  0.49767418  0.50163928     0.90800
O127        O  0.07527716  0.23261173  0.50053843    -0.72900
O128        O  0.45875477  0.20703889  0.51307756    -0.73900
O129        O  0.51599481  0.19505762  0.48100008    -0.62500
O130        O  0.51303287  0.20693047  0.54816189    -0.70900
O131        O  0.51878516  0.26646813  0.54461931    -0.70500
O132        O  0.52103460  0.25458039  0.47697014    -0.61700
O133        O  0.46382797  0.26647181  0.50966725    -0.74200
O134        O  0.07230367  0.29240847  0.50224796    -0.73000
Cu135      Cu  0.51394247  0.19921108  0.51467653     1.04600
Cu136      Cu  0.51967830  0.26274845  0.51065979     1.04300
C137        C  0.09142530  0.26311809  0.50101596     0.93300
C138        C  0.44374275  0.23827999  0.51086399     0.92400
C139        C  0.51969600  0.22277611  0.46847238     0.84600
C140        C  0.51638211  0.23829608  0.55695073     0.90800
O141        O  0.23803604  0.47216324  0.46896472    -0.72900
O142        O  0.23129577  0.46146732  0.53707200    -0.73900
O143        O  0.18008839  0.47759032  0.50169791    -0.62500
O144        O  0.28834368  0.45465702  0.50450104    -0.70900
O145        O  0.29865813  0.01084718  0.50607325    -0.70500
O146        O  0.18910737  0.03347246  0.50283402    -0.61700
O147        O  0.24004118  0.01619747  0.53792193    -0.74200
O148        O  0.24827655  0.02931081  0.47084916    -0.73000
Cu149      Cu  0.23398214  0.46448292  0.50287548     1.04600
Cu150      Cu  0.24435551  0.02447768  0.50456035     1.04300
C151        C  0.24529976  0.50323562  0.46063572     0.93300
C152        C  0.23274312  0.98521643  0.54616871     0.92400
C153        C  0.16609174  0.00786846  0.49998563     0.84600
C154        C  0.30951036  0.97782782  0.50449859     0.90800
O155        O  0.27567849  0.32157839  0.47550978    -0.72900
O156        O  0.26770348  0.29972803  0.54163394    -0.73900
O157        O  0.32688486  0.30533659  0.51052557    -0.62500
O158        O  0.21586912  0.31485835  0.50670319    -0.70900
O159        O  0.21188185  0.25628646  0.49922382    -0.70500
O160        O  0.32332956  0.24662507  0.50329823    -0.61700
O161        O  0.26376728  0.24085215  0.53445583    -0.74200
O162        O  0.27211485  0.26290673  0.46771136    -0.73000
Cu163      Cu  0.27159728  0.31232237  0.50882939     1.04600
Cu164      Cu  0.26755026  0.24961685  0.50084389     1.04300
C165        C  0.27572345  0.29572022  0.46122122     0.93300
C166        C  0.26483761  0.26716184  0.54847787     0.92400
C167        C  0.34264696  0.27458154  0.50766377     0.84600
C168        C  0.19624524  0.28699331  0.50265214     0.90800
O169        O  0.99813211  0.56734813  0.03936068    -0.72900
O170        O  0.00003562  0.56269371  0.97112441    -0.73900
O171        O  0.99875934  0.12067699  0.00145458    -0.62500
O172        O  0.99956881  0.51012748  0.00626457    -0.70900
O173        O  0.48529174  0.40009993  0.01634399    -0.70500
O174        O  0.48303888  0.01190806  0.01223124    -0.61700
O175        O  0.48178939  0.45728753  0.98309574    -0.74200
O176        O  0.48743961  0.45516793  0.05098285    -0.73000
Cu177      Cu  0.00129119  0.56509371  0.00523743     1.04600
Cu178      Cu  0.48267525  0.45614094  0.01708753     1.04300
C179        C  0.96756964  0.56817880  0.04957600     0.93300
C180        C  0.97016425  0.56184616  0.96014692     0.92400
C181        C  0.96902646  0.13873593  0.00190644     0.84600
C182        C  0.96994242  0.49222619  0.00572375     0.90800
O183        O  0.97394248  0.31698205  0.03917790    -0.72900
O184        O  0.97903438  0.31310551  0.97157536    -0.73900
O185        O  0.97598275  0.37119542  0.00463824    -0.62500
O186        O  0.97525626  0.25915473  0.00598402    -0.70900
O187        O  0.45985614  0.15130077  0.01248826    -0.70500
O188        O  0.46098301  0.26138993  0.01505005    -0.61700
O189        O  0.45964410  0.20825041  0.97972509    -0.74200
O190        O  0.46223476  0.20408001  0.04784901    -0.73000
Cu191      Cu  0.97815478  0.31511130  0.00542185     1.04600
Cu192      Cu  0.45864408  0.20633407  0.01380426     1.04300
C193        C  0.94334527  0.31877628  0.04919102     0.93300
C194        C  0.94994485  0.31155319  0.95994527     0.92400
C195        C  0.94560692  0.38844927  0.00348133     0.84600
C196        C  0.94470284  0.24250823  0.00540571     0.90800
O197        O  0.31998895  0.55961939  0.03850672    -0.72900
O198        O  0.30805340  0.55483221  0.97078213    -0.73900
O199        O  0.31195934  0.11124192  0.00104727    -0.62500
O200        O  0.32158249  0.50263165  0.00524252    -0.70900
O201        O  0.26244045  0.49410376  0.00922905    -0.70500
O202        O  0.25202308  0.10671398  0.00196065    -0.61700
O203        O  0.24878675  0.54653773  0.97489926    -0.74200
O204        O  0.26075378  0.55113778  0.04262725    -0.73000
Cu205      Cu  0.31599418  0.55765580  0.00450195     1.04600
Cu206      Cu  0.25273197  0.54871317  0.00888897     1.04300
C207        C  0.29219666  0.55619495  0.05117641     0.93300
C208        C  0.27669331  0.54926389  0.96225140     0.92400
C209        C  0.28057424  0.12641025  0.00167069     0.84600
C210        C  0.29460469  0.48108538  0.00709897     0.90800
O211        O  0.31400148  0.30708099  0.96928780    -0.72900
O212        O  0.32589436  0.30720466  0.03675496    -0.73900
O213        O  0.32621378  0.25204595  0.00233994    -0.62500
O214        O  0.31315736  0.36236503  0.00372176    -0.70900
O215        O  0.25386807  0.35460006  0.00751698    -0.70500
O216        O  0.26684340  0.24490842  0.00608256    -0.61700
O217        O  0.26642906  0.29978546  0.04061664    -0.74200
O218        O  0.25451513  0.29971524  0.97312127    -0.73000
Cu219      Cu  0.32189599  0.30743079  0.00288353     1.04600
Cu220      Cu  0.25839183  0.29956899  0.00698492     1.04300
C221        C  0.28253137  0.30291666  0.96064778     0.93300
C222        C  0.29795712  0.30364047  0.04925565     0.92400
C223        C  0.29863041  0.23111697  0.00377745     0.84600
C224        C  0.28116202  0.37579108  0.00598679     0.90800
O225        O  0.03688654  0.06662021  0.84832204    -0.72900
O226        O  0.96876259  0.48357378  0.84909373    -0.73900
O227        O  0.00845948  0.51994694  0.81547333    -0.62500
O228        O  0.99872758  0.52919666  0.88313936    -0.70900
O229        O  0.48046336  0.48448614  0.89351439    -0.70500
O230        O  0.47734504  0.49390375  0.82563537    -0.61700
O231        O  0.44505824  0.44681393  0.85788145    -0.74200
O232        O  0.51485967  0.02510140  0.85710193    -0.73000
Cu233      Cu  0.00531768  0.52326584  0.84951268     1.04600
Cu234      Cu  0.47712071  0.49043762  0.85970870     1.04300
C235        C  0.02259279  0.09790706  0.84609174     0.93300
C236        C  0.93472241  0.48880253  0.84628050     0.92400
C237        C  0.50095334  0.47728909  0.81353981     0.84600
C238        C  0.97394068  0.54957119  0.89145833     0.90800
O239        O  0.96013329  0.35290748  0.84448703    -0.72900
O240        O  0.02702963  0.26898713  0.85124223    -0.73900
O241        O  0.99834867  0.30735247  0.81412937    -0.62500
O242        O  0.98790426  0.31482438  0.88177905    -0.70900
O243        O  0.47253192  0.19663869  0.88756566    -0.70500
O244        O  0.48299313  0.20368584  0.82036107    -0.61700
O245        O  0.51091128  0.15713958  0.85405252    -0.74200
O246        O  0.44466018  0.24342274  0.85366127    -0.73000
Cu247      Cu  0.99493757  0.31231456  0.84797118     1.04600
Cu248      Cu  0.47613683  0.19887521  0.85375746     1.04300
C249        C  0.45942426  0.27434107  0.85593031     0.93300
C250        C  0.54527748  0.16053960  0.85611804     0.92400
C251        C  0.50840872  0.22258081  0.81174911     0.84600
C252        C  0.96149288  0.29902177  0.89158114     0.90800
O253        O  0.31940215  0.51318182  0.84574785    -0.72900
O254        O  0.26361391  0.09227637  0.84095806    -0.73900
O255        O  0.30077985  0.05360531  0.87515045    -0.62500
O256        O  0.28773486  0.04184226  0.80790473    -0.70900
O257        O  0.23762238  0.01027396  0.81369703    -0.70500
O258        O  0.25054007  0.02197322  0.88088966    -0.61700
O259        O  0.21323381  0.06086779  0.84707990    -0.74200
O260        O  0.27425254  0.47411900  0.85022966    -0.73000
Cu261      Cu  0.29604765  0.04884494  0.84125037     1.04600
Cu262      Cu  0.24230348  0.01500745  0.84755267     1.04300
C263        C  0.30796417  0.48085603  0.84751094     0.93300
C264        C  0.22935035  0.09089565  0.84417420     0.92400
C265        C  0.27743381  0.03992403  0.88853852     0.84600
C266        C  0.26087565  0.02382736  0.80015582     0.90800
O267        O  0.25038440  0.31019585  0.88098149    -0.72900
O268        O  0.24912483  0.30178712  0.81342553    -0.73900
O269        O  0.21560250  0.26398980  0.84900963    -0.62500
O270        O  0.28358228  0.34721902  0.84501040    -0.70900
O271        O  0.33243287  0.31149645  0.84611164    -0.70500
O272        O  0.26445891  0.22837033  0.85087476    -0.61700
O273        O  0.29702040  0.26515095  0.81465142    -0.74200
O274        O  0.29918133  0.27456280  0.88227670    -0.73000
Cu275      Cu  0.24803509  0.30716927  0.84709469     1.04600
Cu276      Cu  0.29989173  0.26849860  0.84855160     1.04300
C277        C  0.27524204  0.29404068  0.89218503     0.93300
C278        C  0.27266645  0.28200692  0.80333819     0.92400
C279        C  0.23004335  0.23262882  0.85020925     0.84600
C280        C  0.31802126  0.34285727  0.84496062     0.90800
O281        O  0.50756192  0.46648510  0.63600221    -0.72900
O282        O  0.51238824  0.46268380  0.70384352    -0.73900
O283        O  0.46858864  0.42920372  0.67001062    -0.62500
O284        O  0.05256686  0.51169300  0.66205597    -0.70900
O285        O  0.01883063  0.06624568  0.65421765    -0.70500
O286        O  0.42776554  0.97638632  0.66740160    -0.61700
O287        O  0.47068475  0.00614932  0.70249022    -0.74200
O288        O  0.46797244  0.01514432  0.63455599    -0.73000
Cu289      Cu  0.51121172  0.46290853  0.66981897     1.04600
Cu290      Cu  0.46791456  0.01230966  0.66865837     1.04300
C291        C  0.48614168  0.99268154  0.62255190     0.93300
C292        C  0.48994859  0.98129167  0.71169611     0.92400
C293        C  0.43258499  0.94222486  0.66549197     0.84600
C294        C  0.05068429  0.05269255  0.65527237     0.90800
O295        O  0.49728387  0.29582083  0.67085783    -0.72900
O296        O  0.06547253  0.26016210  0.66423422    -0.73900
O297        O  0.53982304  0.26245391  0.63702351    -0.62500
O298        O  0.53637205  0.25832244  0.70507300    -0.70900
O299        O  0.49979544  0.21100451  0.70260689    -0.70500
O300        O  0.50239845  0.21554034  0.63532153    -0.61700
O301        O  0.03096455  0.21092249  0.66392176    -0.74200
O302        O  0.46005571  0.24865412  0.66916843    -0.73000
Cu303      Cu  0.53968217  0.26216142  0.67113374     1.04600
Cu304      Cu  0.49998947  0.21169329  0.66892548     1.04300
C305        C  0.46543114  0.28282613  0.66969803     0.93300
C306        C  0.06205658  0.22582716  0.66482817     0.92400
C307        C  0.52106680  0.23988624  0.62558898     0.84600
C308        C  0.51738860  0.23376686  0.71455500     0.90800
O309        O  0.26613806  0.44076963  0.66664896    -0.72900
O310        O  0.18396039  0.51119110  0.66371588    -0.73900
O311        O  0.22225970  0.46949169  0.63124188    -0.62500
O312        O  0.22743561  0.48341154  0.69885602    -0.70900
O313        O  0.26564965  0.02111929  0.69000101    -0.70500
O314        O  0.25545241  0.00920177  0.62289212    -0.61700
O315        O  0.22091926  0.05238838  0.65603221    -0.74200
O316        O  0.29996156  0.97822380  0.65648704    -0.73000
Cu317      Cu  0.22361217  0.47465013  0.66526382     1.04600
Cu318      Cu  0.26193252  0.01665965  0.65620092     1.04300
C319        C  0.29361093  0.94466457  0.65963341     0.93300
C320        C  0.18852384  0.04110239  0.65823991     0.92400
C321        C  0.23459766  0.98485972  0.61488351     0.84600
C322        C  0.24732301  0.00132449  0.70344075     0.90800
O323        O  0.32562736  0.26633609  0.66075741    -0.72900
O324        O  0.23502283  0.20878424  0.66394839    -0.73900
O325        O  0.27909208  0.23455222  0.62819983    -0.62500
O326        O  0.28184844  0.24145455  0.69612065    -0.70900
O327        O  0.25020486  0.29266544  0.69460606    -0.70500
O328        O  0.24894565  0.28680241  0.62702612    -0.61700
O329        O  0.20413959  0.26066161  0.66213535    -0.74200
O330        O  0.29543461  0.31869749  0.66006291    -0.73000
Cu331      Cu  0.28154414  0.23599889  0.66223535     1.04600
Cu332      Cu  0.24845197  0.29145679  0.66082221     1.04300
C333        C  0.32516289  0.30088846  0.66072601     0.93300
C334        C  0.20507876  0.22615360  0.66363084     0.92400
C335        C  0.26365487  0.25983098  0.61699937     0.84600
C336        C  0.26664831  0.26834055  0.70607378     0.90800
C337        C  0.41979271  0.31395232  0.64673470    -0.13300
C338        C  0.43401732  0.30671691  0.66814632     0.08800
C339        C  0.41237059  0.31175791  0.68724293    -0.13300
C340        C  0.37531331  0.31839631  0.68469479    -0.13300
C341        C  0.35995578  0.31886740  0.66308046     0.08800
C342        C  0.38259869  0.31997698  0.64418127    -0.13300
H343        H  0.43633646  0.30981195  0.63185591     0.12800
H344        H  0.42304058  0.30584657  0.70384758     0.12800
H345        H  0.35802235  0.31700265  0.69942683     0.12800
H346        H  0.37104468  0.31983033  0.62739981     0.12800
C347        C  0.11476597  0.20545473  0.68620216    -0.13300
C348        C  0.09532349  0.20455442  0.66593125     0.08800
C349        C  0.11379902  0.19862665  0.64562032    -0.13300
C350        C  0.15161159  0.20017573  0.64516988    -0.13300
C351        C  0.17073129  0.20710674  0.66507779     0.08800
C352        C  0.15256734  0.20689183  0.68577177    -0.13300
H353        H  0.10080482  0.21066936  0.70194856     0.12800
H354        H  0.09909443  0.19858853  0.62980638     0.12800
H355        H  0.16540099  0.20079721  0.62906494     0.12800
H356        H  0.16711096  0.21268167  0.70122485     0.12800
C357        C  0.34603540  0.91633505  0.64136255    -0.13300
C358        C  0.32494283  0.92041661  0.66085360     0.08800
C359        C  0.34506623  0.42357296  0.68713723    -0.13300
C360        C  0.38257559  0.41900905  0.68911202    -0.13300
C361        C  0.40026802  0.91967768  0.66417769     0.08800
C362        C  0.38383686  0.91581338  0.64303638    -0.13300
H363        H  0.33373269  0.91958337  0.62490766     0.12800
H364        H  0.32913945  0.42813728  0.70222590     0.12800
H365        H  0.39481117  0.42080209  0.70567303     0.12800
H366        H  0.39980424  0.91855858  0.62782537     0.12800
C367        C  0.10108450  0.08013671  0.67497832    -0.13300
C368        C  0.08298461  0.07512756  0.65443636     0.08800
C369        C  0.10313460  0.07366985  0.63445462    -0.13300
C370        C  0.14068917  0.06886818  0.63549250    -0.13300
C371        C  0.15779358  0.06593555  0.65648461     0.08800
C372        C  0.13857740  0.07483171  0.67607870    -0.13300
H373        H  0.08582884  0.08114270  0.69056960     0.12800
H374        H  0.08953345  0.06954720  0.61847162     0.12800
H375        H  0.15524076  0.06176055  0.62023729     0.12800
H376        H  0.15145349  0.07240705  0.69241940     0.12800
C377        C  0.24909418  0.30160303  0.76563592    -0.13300
C378        C  0.27148319  0.27857349  0.77844606     0.08800
C379        C  0.29235733  0.25210908  0.76723810    -0.13300
C380        C  0.29063914  0.24858008  0.74377116    -0.13300
C381        C  0.26824202  0.27163524  0.73097306     0.08800
C382        C  0.24763790  0.29830368  0.74218850    -0.13300
H383        H  0.23275609  0.32235576  0.77372476     0.12800
H384        H  0.30981828  0.23389892  0.77661962     0.12800
H385        H  0.30701222  0.22789883  0.73564362     0.12800
H386        H  0.23016895  0.31657132  0.73285363     0.12800
C387        C  0.34428014  0.39351476  0.86501036    -0.13300
C388        C  0.33999962  0.37537624  0.84444861     0.08800
C389        C  0.33997871  0.39515809  0.82436224    -0.13300
C390        C  0.33625411  0.43273853  0.82516440    -0.13300
C391        C  0.33282890  0.45015886  0.84604488     0.08800
C392        C  0.34031769  0.43103870  0.86584343    -0.13300
H393        H  0.34411304  0.37850658  0.88066600     0.12800
H394        H  0.33641372  0.38143153  0.80836891     0.12800
H395        H  0.33020705  0.44720383  0.80974615     0.12800
H396        H  0.33746757  0.44417109  0.88208850     0.12800
C397        C  0.20569108  0.14603979  0.82631702    -0.13300
C398        C  0.20951946  0.12499459  0.84573469     0.08800
C399        C  0.20650441  0.14125963  0.86699962    -0.13300
C400        C  0.20603815  0.17891571  0.86880855    -0.13300
C401        C  0.20816014  0.20004608  0.84932366     0.08800
C402        C  0.20443210  0.18365325  0.82814396    -0.13300
H403        H  0.20850358  0.13378035  0.80980904     0.12800
H404        H  0.20997191  0.12523974  0.88211903     0.12800
H405        H  0.20951800  0.19123287  0.88524403     0.12800
H406        H  0.20665178  0.19969607  0.81295645     0.12800
C407        C  0.22480513  0.50103116  0.76974625    -0.13300
C408        C  0.25705740  0.01823636  0.77540537     0.08800
C409        C  0.28081434  0.03530065  0.76029939    -0.13300
C410        C  0.27766398  0.02971163  0.73703836    -0.13300
C411        C  0.25082270  0.00670749  0.72822243     0.08800
C412        C  0.22383508  0.49587287  0.74633775    -0.13300
H413        H  0.20608137  0.48599478  0.78014140     0.12800
H414        H  0.30190259  0.05310337  0.76644294     0.12800
H415        H  0.29640131  0.04339456  0.72594401     0.12800
H416        H  0.20420836  0.47719991  0.73937694     0.12800
C417        C  0.49032893  0.20306376  0.77297950    -0.13300
C418        C  0.51117525  0.22564334  0.78691735     0.08800
C419        C  0.00553681  0.30691319  0.76628515    -0.13300
C420        C  0.01119718  0.30305655  0.74305274    -0.13300
C421        C  0.51544812  0.23132346  0.73946143     0.08800
C422        C  0.49253530  0.20577470  0.74958074    -0.13300
H423        H  0.47235919  0.18306872  0.78015040     0.12800
H424        H  0.01969352  0.32823155  0.77517927     0.12800
H425        H  0.02945374  0.32158565  0.73473649     0.12800
H426        H  0.47611462  0.18780736  0.73940790     0.12800
C427        C  0.43718381  0.36394492  0.83455598    -0.13300
C428        C  0.91168066  0.45708663  0.84408273     0.08800
C429        C  0.90256364  0.43777720  0.86349063    -0.13300
C430        C  0.89838558  0.40029956  0.86226671    -0.13300
C431        C  0.43802337  0.30758438  0.85510071     0.08800
C432        C  0.43707591  0.32620254  0.83459697    -0.13300
H433        H  0.44213062  0.37796274  0.81885890     0.12800
H434        H  0.90373744  0.45072182  0.87986554     0.12800
H435        H  0.89687504  0.38505788  0.87780188     0.12800
H436        H  0.44195985  0.31188539  0.81892591     0.12800
C437        C  0.57716834  0.07134819  0.83689520    -0.13300
C438        C  0.04370320  0.13072427  0.84885620     0.08800
C439        C  0.04162820  0.14729026  0.87009341    -0.13300
C440        C  0.03695802  0.18469530  0.87161583    -0.13300
C441        C  0.56722962  0.12760306  0.85696673     0.08800
C442        C  0.57452503  0.10907974  0.83684010    -0.13300
H443        H  0.57716588  0.05705978  0.82093627     0.12800
H444        H  0.03704561  0.13107729  0.88499845     0.12800
H445        H  0.02942484  0.19662351  0.88764679     0.12800
H446        H  0.57301836  0.12312684  0.82087392     0.12800
C447        C  0.47151455  0.99732462  0.77410581    -0.13300
C448        C  0.49715752  0.97430329  0.78440596     0.08800
C449        C  0.01096859  0.50489847  0.76813192    -0.13300
C450        C  0.01131568  0.49874939  0.74480917    -0.13300
C451        C  0.49206999  0.97864687  0.73670142     0.08800
C452        C  0.46908542  0.99955766  0.75056516    -0.13300
H453        H  0.45330728  0.01372483  0.78424375     0.12800
H454        H  0.02873721  0.48883710  0.77872234     0.12800
H455        H  0.02958720  0.47834271  0.73808731     0.12800
H456        H  0.44909155  0.01762078  0.74322269     0.12800
C457        C  0.27658228  0.29805269  0.91629924    -0.13200
C458        C  0.27878093  0.30095518  0.93653371    -0.14800
C459        C  0.30140555  0.44097819  0.00648139    -0.16400
C460        C  0.27470894  0.41593205  0.00693887    -0.31600
H461        H  0.32943191  0.43186606  0.00525369     0.12600
H462        H  0.24669755  0.42511323  0.00813367     0.13200
C463        C  0.27621106  0.16687076  0.00235535    -0.16400
C464        C  0.30403948  0.19076518  0.00270692    -0.31600
H465        H  0.24859981  0.17734018  0.00285533     0.12600
H466        H  0.33172973  0.18054010  0.00205060     0.13200
C467        C  0.27289642  0.54529056  0.93809548    -0.13200
C468        C  0.27005780  0.54141122  0.91787198    -0.14800
C469        C  0.95262786  0.30756277  0.93574712    -0.13200
C470        C  0.95650377  0.30345623  0.91561280    -0.14800
C471        C  0.94339062  0.42919956  0.00347906    -0.16400
C472        C  0.97223782  0.45147534  0.00567867    -0.31600
H473        H  0.46195727  0.33204253  0.01649728     0.12600
H474        H  0.99909250  0.43942005  0.00725948     0.13200
C475        C  0.94229709  0.20185469  0.00497381    -0.16400
C476        C  0.97118190  0.17939275  0.00254435    -0.31600
H477        H  0.45987459  0.08052255  0.01114802     0.12600
H478        H  0.99802814  0.19122872  0.00125626     0.13200
C479        C  0.97164314  0.55424605  0.91561218    -0.13200
C480        C  0.97073844  0.55822745  0.93588225    -0.14800
C481        C  0.26338320  0.26051729  0.57238390    -0.13200
C482        C  0.26324724  0.25850836  0.59272047    -0.14800
C483        C  0.23138589  0.98130619  0.59073735    -0.13200
C484        C  0.23088479  0.98139387  0.57034145    -0.14800
C485        C  0.40286354  0.24080343  0.50940004    -0.16400
C486        C  0.38352342  0.27225665  0.50931313    -0.31600
H487        H  0.38812263  0.21545392  0.50850718     0.12600
H488        H  0.39815493  0.29760093  0.51080291     0.13200
C489        C  0.13246222  0.26230234  0.50015819    -0.16400
C490        C  0.15525219  0.29082814  0.50234115    -0.31600
H491        H  0.14468299  0.23561442  0.49819694     0.12600
H492        H  0.14367357  0.31769497  0.50468973     0.13200
C493        C  0.51831491  0.24152453  0.58108394    -0.13200
C494        C  0.52035021  0.24187141  0.60139325    -0.14800
C495        C  0.34904936  0.96764121  0.50620315    -0.16400
C496        C  0.37640795  0.99192825  0.50615281    -0.31600
H497        H  0.35777637  0.44035744  0.50920370     0.12600
H498        H  0.36956866  0.02045359  0.50455416     0.13200
C499        C  0.10012388  0.99043963  0.49748545    -0.16400
C500        C  0.12590047  0.01629290  0.49984642    -0.31600
H501        H  0.11220055  0.46490387  0.49782120     0.12600
H502        H  0.11743137  0.04424202  0.50230019     0.13200
C503        C  0.48537045  0.99511938  0.59828866    -0.13200
C504        C  0.48549950  0.99345221  0.57791922    -0.14800
C505        C  0.28522210  0.30973188  0.41768156    -0.13200
C506        C  0.28052481  0.30376794  0.43755252    -0.14800
C507        C  0.25300544  0.51348485  0.41656479    -0.13200
C508        C  0.24904860  0.50782476  0.43653441    -0.14800
C509        C  0.52654683  0.21223929  0.42454903    -0.13200
C510        C  0.52315727  0.21777100  0.44451135    -0.14800
C511        C  0.42537285  0.31998428  0.37122517    -0.13300
C512        C  0.40634454  0.32384227  0.35098313     0.08800
C513        C  0.42308297  0.31494045  0.33050971    -0.13300
C514        C  0.45628252  0.29678335  0.33055562    -0.13300
C515        C  0.47263922  0.28797672  0.35107422     0.08800
C516        C  0.45871283  0.30198262  0.37126251    -0.13300
H517        H  0.41235047  0.32624879  0.38713227     0.12800
H518        H  0.40823697  0.31736610  0.31481372     0.12800
H519        H  0.46665206  0.28559153  0.31492803     0.12800
H520        H  0.47106877  0.29482334  0.38721992     0.12800
C521        C  0.12733603  0.33818229  0.34646892    -0.13300
C522        C  0.11083582  0.30420237  0.34439195     0.08800
C523        C  0.13248477  0.27309502  0.34167521    -0.13300
C524        C  0.17008856  0.27578471  0.34166113    -0.13300
C525        C  0.18662332  0.30963481  0.34430602     0.08800
C526        C  0.16499295  0.34088745  0.34638712    -0.13300
H527        H  0.11120975  0.36261465  0.34839388     0.12800
H528        H  0.12042634  0.24656779  0.33987053     0.12800
H529        H  0.18616792  0.25129418  0.33987252     0.12800
H530        H  0.17712124  0.36735110  0.34836850     0.12800
C531        C  0.49940977  0.44309656  0.44705780    -0.13200
C532        C  0.50473066  0.43421237  0.42768006    -0.14800
C533        C  0.39776632  0.53464307  0.36518534    -0.11700
C534        C  0.37378359  0.52378334  0.34815268     0.08800
C535        C  0.38413797  0.00709945  0.32595059    -0.13300
C536        C  0.41921536  0.99345258  0.32717917    -0.13300
C537        C  0.44356599  0.49489611  0.34922744     0.08800
C538        C  0.43291108  0.52001785  0.36574881    -0.13300
H539        H  0.38828865  0.55123708  0.37907763     0.12800
H540        H  0.36765303  0.00083944  0.31133471     0.12800
H541        H  0.42928616  0.97647867  0.31359975     0.12800
H542        H  0.45013265  0.52521745  0.38018043     0.12800
C543        C  0.09311797  0.06921188  0.34523426    -0.13300
C544        C  0.07762757  0.54736500  0.34347963     0.08800
C545        C  0.09895075  0.57876280  0.34351482    -0.13300
C546        C  0.13666791  0.57611316  0.34392923    -0.13300
C547        C  0.15364487  0.54202533  0.34428130     0.08800
C548        C  0.13077880  0.06750703  0.34522731    -0.13300
H549        H  0.08005791  0.09548723  0.34655011     0.12800
H550        H  0.08650447  0.60540864  0.34356045     0.12800
H551        H  0.15249230  0.60073495  0.34420414     0.12800
H552        H  0.14589931  0.09249094  0.34653318     0.12800
C553        C  0.30193849  0.30419288  0.07341338    -0.13200
C554        C  0.30429845  0.30494732  0.09373151    -0.14800
C555        C  0.29700073  0.28459273  0.24449642    -0.13300
C556        C  0.30796749  0.31473037  0.23200442     0.08800
C557        C  0.31721972  0.34678064  0.24347454    -0.13300
C558        C  0.31483213  0.34871353  0.26707846    -0.13300
C559        C  0.30404523  0.31831803  0.27956729     0.08800
C560        C  0.29546963  0.28621777  0.26795602    -0.13300
H561        H  0.28983654  0.25956169  0.23608299     0.12800
H562        H  0.32549810  0.37050320  0.23415690     0.12800
H563        H  0.32173079  0.37375506  0.27554789     0.12800
H564        H  0.28701474  0.26230604  0.27701979     0.12800
C565        C  0.28866159  0.05869553  0.09122785    -0.13200
C566        C  0.28817228  0.05714096  0.07083391    -0.14800
C567        C  0.23777534  0.45375171  0.18547730    -0.13300
C568        C  0.23675229  0.47362678  0.16543281     0.08800
C569        C  0.23233394  0.45563586  0.14482802    -0.13300
C570        C  0.23599451  0.41807490  0.14389786    -0.13300
C571        C  0.24331282  0.39881307  0.16364995     0.08800
C572        C  0.24119095  0.41622289  0.18457454    -0.13300
H573        H  0.24187933  0.46738102  0.20145934     0.12800
H574        H  0.23214900  0.47076167  0.12921844     0.12800
H575        H  0.23805178  0.40484889  0.12763824     0.12800
H576        H  0.24733264  0.40155593  0.19991131     0.12800
C577        C  0.36189808  0.16071268  0.18392178    -0.13300
C578        C  0.35758472  0.14298192  0.16323983     0.08800
C579        C  0.36593713  0.16109700  0.14323903    -0.13300
C580        C  0.37217517  0.19833333  0.14369979    -0.13300
C581        C  0.36930594  0.21730604  0.16410549     0.08800
C582        C  0.36809205  0.19793333  0.18435863    -0.13300
H583        H  0.35534614  0.14699921  0.19949007     0.12800
H584        H  0.36249696  0.14768020  0.12713710     0.12800
H585        H  0.37276378  0.21292532  0.12790083     0.12800
H586        H  0.36552568  0.21222134  0.20024673     0.12800
C587        C  0.28248830  0.02078972  0.23973561    -0.13300
C588        C  0.27563125  0.05437539  0.22951374     0.08800
C589        C  0.27491636  0.58838205  0.24692613    -0.13300
C590        C  0.26875943  0.58392723  0.27007939    -0.13300
C591        C  0.27895896  0.55162228  0.28088043     0.08800
C592        C  0.27721472  0.01616595  0.26286263    -0.13300
H593        H  0.29145239  0.99784087  0.22974266     0.12800
H594        H  0.26582747  0.61307566  0.23884104     0.12800
H595        H  0.25518827  0.60530307  0.27940563     0.12800
H596        H  0.28278549  0.98985646  0.27014408     0.12800
C597        C  0.94281601  0.32151593  0.07349454    -0.13200
C598        C  0.94568618  0.32359346  0.09380036    -0.14800
C599        C  0.49296008  0.18532624  0.25323347    -0.13300
C600        C  0.52417576  0.18542786  0.23968136     0.08800
C601        C  0.96537701  0.34526664  0.24575609    -0.13300
C602        C  0.97164910  0.34278286  0.26904464    -0.13300
C603        C  0.53002074  0.18550817  0.28724332     0.08800
C604        C  0.49584767  0.18482626  0.27670714    -0.13300
H605        H  0.46620901  0.18551839  0.24562722     0.12800
H606        H  0.94714507  0.36606897  0.23952900     0.12800
H607        H  0.95772698  0.36133595  0.28029916     0.12800
H608        H  0.47121313  0.18497268  0.28666560     0.12800
C609        C  0.96635932  0.57047886  0.07393540    -0.13200
C610        C  0.96443426  0.57255419  0.09431119    -0.14800
C611        C  0.02934174  0.47097891  0.14215287    -0.13300
C612        C  0.02556077  0.48790258  0.16318653     0.08800
C613        C  0.59052918  0.33178578  0.18860294    -0.13300
C614        C  0.58786163  0.29419718  0.18846023    -0.13300
C615        C  0.02772381  0.41277377  0.16047870     0.08800
C616        C  0.03034045  0.43327970  0.14078279    -0.13300
H617        H  0.02573250  0.48643284  0.12681884     0.12800
H618        H  0.59009830  0.34590182  0.20462457     0.12800
H619        H  0.58564891  0.28004726  0.20435588     0.12800
H620        H  0.02734369  0.42044550  0.12446393     0.12800
C621        C  0.43688720  0.04815281  0.15388504    -0.13300
C622        C  0.89893696  0.15979608  0.16624441     0.08800
C623        C  0.90143759  0.17793207  0.18693796    -0.13300
C624        C  0.90161572  0.21563460  0.18743417    -0.13300
C625        C  0.89920997  0.23492380  0.16723273     0.08800
C626        C  0.43737545  0.08587071  0.15333161    -0.13300
H627        H  0.43824140  0.03332490  0.13813234     0.12800
H628        H  0.90903923  0.16326632  0.20202360     0.12800
H629        H  0.90930254  0.22928718  0.20288128     0.12800
H630        H  0.43900820  0.09934911  0.13718262     0.12800
C631        C  0.98086093  0.09077306  0.24342397    -0.13300
C632        C  0.52511105  0.42469709  0.24329507     0.08800
C633        C  0.50065526  0.40153134  0.25428136    -0.13300
C634        C  0.50227856  0.39672202  0.27770580    -0.13300
C635        C  0.52834987  0.41504215  0.29072278     0.08800
C636        C  0.97901312  0.08842992  0.26698657    -0.13300
H637        H  0.99538262  0.11309483  0.23590267     0.12800
H638        H  0.47991594  0.38743830  0.24481402     0.12800
H639        H  0.48246066  0.37943410  0.28568401     0.12800
H640        H  0.99258576  0.10863146  0.27715808     0.12800
O641        O  0.48760326  0.91979007  0.20360387    -0.72900
O642        O  0.48716206  0.93049530  0.13571251    -0.73900
O643        O  0.52148529  0.88435221  0.16717914    -0.62500
O644        O  0.46318957  0.46413321  0.17602104    -0.70900
O645        O  0.94830001  0.63572052  0.16296068    -0.70500
O646        O  0.02316045  0.04702183  0.15937851    -0.61700
O647        O  0.98491146  0.59296759  0.12982371    -0.74200
O648        O  0.97988567  0.59499316  0.19798312    -0.73000
Cu649      Cu  0.48542753  0.92401174  0.16954499     1.04600
Cu650      Cu  0.98410705  0.59524494  0.16394887     1.04300
C651        C  0.51186890  0.93591575  0.21533254     0.93300
C652        C  0.96186746  0.57438774  0.11864393     0.92400
C653        C  0.00868057  0.01595511  0.15739649     0.84600
C654        C  0.91395597  0.63116527  0.16270519     0.90800
O655        O  0.94457139  0.76453103  0.16038277    -0.72900
O656        O  0.01518374  0.84509583  0.15529175    -0.73900
O657        O  0.98701428  0.80417274  0.19146801    -0.62500
O658        O  0.97225734  0.80510786  0.12431963    -0.70900
O659        O  0.47752578  0.71332409  0.14081032    -0.70500
O660        O  0.48881413  0.70642044  0.20771235    -0.61700
O661        O  0.51634865  0.75251272  0.17394199    -0.74200
O662        O  0.45071261  0.66667488  0.17491745    -0.73000
Cu663      Cu  0.98127611  0.80334476  0.15773975     1.04600
Cu664      Cu  0.48169358  0.71109693  0.17447114     1.04300
C665        C  0.91063540  0.77013322  0.16322230     0.93300
C666        C  0.00237756  0.87710623  0.15662117     0.92400
C667        C  0.51544387  0.68898332  0.21632140     0.84600
C668        C  0.94642523  0.82378739  0.11579644     0.90800
O669        O  0.35609338  0.58993504  0.16554883    -0.72900
O670        O  0.27219054  0.00095775  0.15904244    -0.73900
O671        O  0.32458336  0.54596478  0.13112015    -0.62500
O672        O  0.32173740  0.54699584  0.19930800    -0.70900
O673        O  0.27277269  0.58227423  0.19830813    -0.70500
O674        O  0.27457294  0.57985733  0.13040869    -0.61700
O675        O  0.22547103  0.03942899  0.15861769    -0.74200
O676        O  0.30616846  0.62408439  0.16427092    -0.73000
Cu677      Cu  0.32532978  0.54554933  0.16530531     1.04600
Cu678      Cu  0.27216410  0.58242908  0.16435052     1.04300
C679        C  0.34071106  0.62086819  0.16496142     0.93300
C680        C  0.23809084  0.00720060  0.15853753     0.92400
C681        C  0.29948963  0.56221956  0.12010419     0.84600
C682        C  0.29619027  0.56404349  0.20951360     0.90800
O683        O  0.26544077  0.79818741  0.19544876    -0.72900
O684        O  0.26671717  0.79381471  0.12767966    -0.73900
O685        O  0.30141039  0.75540016  0.16280254    -0.62500
O686        O  0.23014816  0.83706535  0.16033666    -0.70900
O687        O  0.27728571  0.87441626  0.15938505    -0.70500
O688        O  0.34859404  0.79273937  0.16291216    -0.61700
O689        O  0.31403622  0.83084686  0.12721722    -0.74200
O690        O  0.31140624  0.83670068  0.19521212    -0.73000
Cu691      Cu  0.26435755  0.79472266  0.16158636     1.04600
Cu692      Cu  0.31441580  0.83510416  0.16115999     1.04300
C693        C  0.28808257  0.81808052  0.20608309     0.93300
C694        C  0.29069470  0.81150557  0.11683934     0.92400
C695        C  0.33561574  0.76085173  0.16329061     0.84600
C696        C  0.24306575  0.86894126  0.15939700     0.90800
O697        O  0.53587628  0.44513424  0.39406649    -0.72900
O698        O  0.54748647  0.43535657  0.32710870    -0.73900
O699        O  0.50506774  0.47882377  0.35618969    -0.62500
O700        O  0.02346172  0.58093037  0.34935377    -0.70900
O701        O  0.01434967  0.01064687  0.34171843    -0.70500
O702        O  0.45706947  0.93756992  0.35239739    -0.61700
O703        O  0.49737113  0.89492558  0.32247515    -0.74200
O704        O  0.48667038  0.90224091  0.39032379    -0.73000
Cu705      Cu  0.54346987  0.44114276  0.36073198     1.04600
Cu706      Cu  0.49081889  0.89633514  0.35637951     1.04300
C707        C  0.50604272  0.92514402  0.40112133     0.93300
C708        C  0.51952677  0.91606139  0.31243322     0.92400
C709        C  0.46704047  0.97054324  0.35150170     0.84600
C710        C  0.03302648  0.03932673  0.34440315     0.90800
O711        O  0.54167085  0.71167720  0.39138680    -0.72900
O712        O  0.54798136  0.70146174  0.32385602    -0.73900
O713        O  0.51687423  0.75239834  0.35420105    -0.62500
O714        O  0.03578567  0.82932746  0.34835553    -0.70900
O715        O  0.04117505  0.77021694  0.34233854    -0.70500
O716        O  0.46671761  0.71908166  0.35475497    -0.61700
O717        O  0.49731851  0.66918847  0.32431901    -0.74200
O718        O  0.49182904  0.67803028  0.39159723    -0.73000
Cu719      Cu  0.54678546  0.70756457  0.35766808     1.04600
Cu720      Cu  0.49305115  0.67208191  0.35796038     1.04300
C721        C  0.51547799  0.69692222  0.40197807     0.93300
C722        C  0.52283218  0.68456546  0.31341012     0.92400
C723        C  0.48244017  0.74976025  0.35357067     0.84600
C724        C  0.05556521  0.80117206  0.34535547     0.90800
O725        O  0.25982294  0.00813932  0.30916652    -0.72900
O726        O  0.25626798  0.99165187  0.37616187    -0.73900
O727        O  0.20434073  0.00178665  0.34180175    -0.62500
O728        O  0.31159723  0.99871139  0.34298231    -0.70900
O729        O  0.32047103  0.55916045  0.35449518    -0.70500
O730        O  0.21226116  0.56726168  0.34987589    -0.61700
O731        O  0.26140722  0.55319095  0.38585904    -0.74200
O732        O  0.27109687  0.57264936  0.31889674    -0.73000
Cu733      Cu  0.25797825  0.99802919  0.34238701     1.04600
Cu734      Cu  0.26635539  0.56521409  0.35261918     1.04300
C735        C  0.26211943  0.04019031  0.30123532     0.93300
C736        C  0.25584916  0.01866157  0.38964481     0.92400
C737        C  0.18827970  0.03222586  0.34421485     0.84600
C738        C  0.32979702  0.02764092  0.34585005     0.90800
O739        O  0.33534492  0.84675257  0.35200186    -0.72900
O740        O  0.22692275  0.84163180  0.34751244    -0.73900
O741        O  0.27707723  0.83933179  0.38392778    -0.62500
O742        O  0.28473785  0.84763450  0.31560571    -0.70900
O743        O  0.28516536  0.78766116  0.31352544    -0.70500
O744        O  0.28117542  0.77953080  0.38073339    -0.61700
O745        O  0.22989443  0.78166607  0.34577571    -0.74200
O746        O  0.33721353  0.78682705  0.34821258    -0.73000
Cu747      Cu  0.28097185  0.84607465  0.34989397     1.04600
Cu748      Cu  0.28362644  0.78195993  0.34699862     1.04300
C749        C  0.35320818  0.81722283  0.35022380     0.93300
C750        C  0.21129210  0.81090807  0.34618273     0.92400
C751        C  0.27731802  0.80780675  0.39288887     0.84600
C752        C  0.28543438  0.81847346  0.30383988     0.90800
O753        O  0.48468254  0.92702909  0.48209374    -0.72900
O754        O  0.48107172  0.95335036  0.54756348    -0.73900
O755        O  0.42748853  0.95034849  0.51223329    -0.62500
O756        O  0.03939444  0.96822372  0.49680115    -0.70900
O757        O  0.04709401  0.52850385  0.50541916    -0.70500
O758        O  0.44193744  0.50811971  0.50759453    -0.61700
O759        O  0.49354481  0.50928640  0.54383258    -0.74200
O760        O  0.49866972  0.48578007  0.47689087    -0.73000
Cu761      Cu  0.48239798  0.93874729  0.51503474     1.04600
Cu762      Cu  0.49627244  0.50007010  0.51002535     1.04300
C763        C  0.49111074  0.95131239  0.46746029     0.93300
C764        C  0.48730236  0.48351012  0.55764389     0.92400
C765        C  0.41611057  0.98244337  0.50758210     0.84600
C766        C  0.05959859  0.99617163  0.49851447     0.90800
O767        O  0.06005215  0.72781881  0.49779146    -0.72900
O768        O  0.44323934  0.70041213  0.51393257    -0.73900
O769        O  0.50147386  0.68693513  0.48277531    -0.62500
O770        O  0.49636847  0.70308650  0.54955448    -0.70900
O771        O  0.50166094  0.76241786  0.54471141    -0.70500
O772        O  0.50599992  0.74623291  0.47742698    -0.61700
O773        O  0.44808361  0.75963140  0.50920456    -0.74200
O774        O  0.05696119  0.78730672  0.50191398    -0.73000
Cu775      Cu  0.49851041  0.69327497  0.51628920     1.04600
Cu776      Cu  0.50374611  0.75657505  0.51083894     1.04300
C777        C  0.07617205  0.75827397  0.49949623     0.93300
C778        C  0.42813736  0.73143651  0.51087804     0.92400
C779        C  0.50504860  0.71394402  0.46965473     0.84600
C780        C  0.49878697  0.73500775  0.55766173     0.90800
O781        O  0.23692606  0.97094323  0.46562225    -0.72900
O782        O  0.22765980  0.95789502  0.53329130    -0.73900
O783        O  0.17765425  0.97527552  0.49763479    -0.62500
O784        O  0.28616284  0.95268840  0.50158280    -0.70900
O785        O  0.30137911  0.51283993  0.50816776    -0.70500
O786        O  0.19166720  0.53593065  0.50607300    -0.61700
O787        O  0.24400227  0.51986828  0.54069415    -0.74200
O788        O  0.24973610  0.53061384  0.47346171    -0.73000
Cu789      Cu  0.23167565  0.96221919  0.49930763     1.04600
Cu790      Cu  0.24703424  0.52683760  0.50720554     1.04300
C791        C  0.24437680  0.00222375  0.45769585     0.93300
C792        C  0.23706706  0.48922441  0.54949889     0.92400
C793        C  0.16858938  0.51023842  0.50370695     0.84600
C794        C  0.31194082  0.47967718  0.50687288     0.90800
O795        O  0.26103377  0.81569468  0.47446385    -0.72900
O796        O  0.25317261  0.79499439  0.54072782    -0.73900
O797        O  0.31211949  0.79934413  0.50941040    -0.62500
O798        O  0.20102726  0.80995608  0.50581586    -0.70900
O799        O  0.19665211  0.75137921  0.49848533    -0.70500
O800        O  0.30789128  0.74053763  0.50262640    -0.61700
O801        O  0.24845603  0.73609167  0.53385009    -0.74200
O802        O  0.25710961  0.75695100  0.46695466    -0.73000
Cu803      Cu  0.25689627  0.80696926  0.50782272     1.04600
Cu804      Cu  0.25224482  0.74420818  0.50016381     1.04300
C805        C  0.26117381  0.78963550  0.46032076     0.93300
C806        C  0.25006543  0.76255058  0.54774696     0.92400
C807        C  0.32750990  0.76834767  0.50676300     0.84600
C808        C  0.18118541  0.78217612  0.50185975     0.90800
O809        O  0.99865560  0.06825364  0.03647345    -0.72900
O810        O  0.99852384  0.06340944  0.96835637    -0.73900
O811        O  0.99950375  0.62011023  0.00410408    -0.62500
O812        O  0.99951143  0.01086353  0.00359585    -0.70900
O813        O  0.48270602  0.89984921  0.01276795    -0.70500
O814        O  0.48467307  0.51209980  0.01757554    -0.61700
O815        O  0.48234711  0.95546543  0.97843172    -0.74200
O816        O  0.48249022  0.95619007  0.04647460    -0.73000
Cu817      Cu  0.00085128  0.06580446  0.00244481     1.04600
Cu818      Cu  0.48051245  0.95588281  0.01246394     1.04300
C819        C  0.96838602  0.06906293  0.04698910     0.93300
C820        C  0.96829346  0.06258903  0.95775640     0.92400
C821        C  0.96987108  0.63837586  0.00375056     0.84600
C822        C  0.96999987  0.99276939  0.00342813     0.90800
O823        O  0.97270243  0.81742057  0.03783922    -0.72900
O824        O  0.98191801  0.81361273  0.97045287    -0.73900
O825        O  0.97666074  0.87166912  0.00336768    -0.62500
O826        O  0.97623654  0.75942299  0.00491367    -0.70900
O827        O  0.45918913  0.65083398  0.01545926    -0.70500
O828        O  0.45860306  0.76100096  0.01589378    -0.61700
O829        O  0.45792347  0.70653288  0.98159854    -0.74200
O830        O  0.46066018  0.70523775  0.04963641    -0.73000
Cu831      Cu  0.97898408  0.81553299  0.00425117     1.04600
Cu832      Cu  0.45705091  0.70591046  0.01567481     1.04300
C833        C  0.94149125  0.81887450  0.04710717     0.93300
C834        C  0.95354785  0.81237994  0.95814669     0.92400
C835        C  0.94629094  0.88881549  0.00161768     0.84600
C836        C  0.94576767  0.74267731  0.00369228     0.90800
O837        O  0.31677541  0.05692846  0.03535209    -0.72900
O838        O  0.31404051  0.05456361  0.96729842    -0.73900
O839        O  0.30626232  0.61232846  0.00402281    -0.62500
O840        O  0.31852670  0.00048017  0.00170629    -0.70900
O841        O  0.25859565  0.99603739  0.00270575    -0.70500
O842        O  0.24715068  0.60386494  0.00814942    -0.61700
O843        O  0.25396431  0.05024683  0.96827837    -0.74200
O844        O  0.25669299  0.05270425  0.03635255    -0.73000
Cu845      Cu  0.31738726  0.05591051  0.00130501     1.04600
Cu846      Cu  0.25324653  0.05136707  0.00234258     1.04300
C847        C  0.28717433  0.05544555  0.04650534     0.93300
C848        C  0.28360544  0.05154705  0.95714082     0.92400
C849        C  0.27410583  0.62541154  0.00607204     0.84600
C850        C  0.28995028  0.98079966  0.00218887     0.90800
O851        O  0.30284818  0.80400759  0.96797984    -0.72900
O852        O  0.31473997  0.80892929  0.03560611    -0.73900
O853        O  0.31507542  0.75177748  0.00264401    -0.62500
O854        O  0.30313927  0.86167768  0.00091469    -0.70900
O855        O  0.24372826  0.85529712  0.00486935    -0.70500
O856        O  0.25575113  0.74466355  0.00669506    -0.61700
O857        O  0.25517095  0.80231534  0.03945553    -0.74200
O858        O  0.24335893  0.79735262  0.97228808    -0.73000
Cu859      Cu  0.31099909  0.80682986  0.00163580     1.04600
Cu860      Cu  0.24744664  0.79976519  0.00597546     1.04300
C861        C  0.27120937  0.79937560  0.95961626     0.93300
C862        C  0.28662472  0.80638692  0.04809381     0.92400
C863        C  0.28766236  0.73086972  0.00476292     0.84600
C864        C  0.27146692  0.87590785  0.00277106     0.90800
O865        O  0.03883023  0.56596390  0.84973864    -0.72900
O866        O  0.96873355  0.98277384  0.84704119    -0.73900
O867        O  0.00937096  0.01975480  0.81378521    -0.62500
O868        O  0.99645874  0.02942774  0.88121047    -0.70900
O869        O  0.48334450  0.97983824  0.88978331    -0.70500
O870        O  0.47718393  0.98895681  0.82194525    -0.61700
O871        O  0.44486169  0.94369471  0.85501110    -0.74200
O872        O  0.51231387  0.53106915  0.86136007    -0.73000
Cu873      Cu  0.00446107  0.02321503  0.84775751     1.04600
Cu874      Cu  0.47852240  0.98578295  0.85603932     1.04300
C875        C  0.02525519  0.59763637  0.84789891     0.93300
C876        C  0.93464765  0.98720580  0.84392355     0.92400
C877        C  0.49969822  0.97165100  0.80942357     0.84600
C878        C  0.97112760  0.04952374  0.88913251     0.90800
O879        O  0.96495092  0.85132585  0.84165224    -0.72900
O880        O  0.03301878  0.76851458  0.85012633    -0.73900
O881        O  0.00357971  0.80435001  0.81204658    -0.62500
O882        O  0.99328447  0.81559980  0.87977178    -0.70900
O883        O  0.46936437  0.69720165  0.88966122    -0.70500
O884        O  0.47686758  0.70410139  0.82238283    -0.61700
O885        O  0.50931025  0.66040625  0.85591184    -0.74200
O886        O  0.43720906  0.74183961  0.85594313    -0.73000
Cu887      Cu  0.00032559  0.81129525  0.84591907     1.04600
Cu888      Cu  0.47164788  0.69945136  0.85585481     1.04300
C889        C  0.45025978  0.77359351  0.85781793     0.93300
C890        C  0.54341744  0.66605468  0.85767985     0.92400
C891        C  0.50076208  0.72417803  0.81318477     0.84600
C892        C  0.96736124  0.79961830  0.88999413     0.90800
O893        O  0.32515893  0.00276373  0.84178045    -0.72900
O894        O  0.24506203  0.59192054  0.84837334    -0.73900
O895        O  0.28775232  0.55584810  0.88087196    -0.62500
O896        O  0.27638101  0.54957129  0.81326820    -0.70900
O897        O  0.23159545  0.51036141  0.81743733    -0.70500
O898        O  0.24274795  0.51675429  0.88528081    -0.61700
O899        O  0.19965982  0.55310087  0.85269571    -0.74200
O900        O  0.27456171  0.97165481  0.84778877    -0.73000
Cu901      Cu  0.28359776  0.55408121  0.84691041     1.04600
Cu902      Cu  0.23553773  0.51207580  0.85153180     1.04300
C903        C  0.30883054  0.97280703  0.84464655     0.93300
C904        C  0.21136194  0.58539427  0.85123875     0.92400
C905        C  0.26679934  0.53769028  0.89367281     0.84600
C906        C  0.25256705  0.52861423  0.80460662     0.90800
O907        O  0.23443526  0.80193438  0.88072737    -0.72900
O908        O  0.22947112  0.79028485  0.81323867    -0.73900
O909        O  0.19664319  0.75511109  0.85046519    -0.62500
O910        O  0.26638763  0.83663545  0.84348600    -0.70900
O911        O  0.31428101  0.79966874  0.84459950    -0.70500
O912        O  0.24453650  0.71819231  0.85185171    -0.61700
O913        O  0.27667861  0.75278805  0.81437265    -0.74200
O914        O  0.28209886  0.76477399  0.88168402    -0.73000
Cu915      Cu  0.23008583  0.79735627  0.84692255     1.04600
Cu916      Cu  0.28094417  0.75739999  0.84814020     1.04300
C917        C  0.25949653  0.78561891  0.89169208     0.93300
C918        C  0.25234768  0.76973751  0.80311115     0.92400
C919        C  0.21021504  0.72344761  0.85226940     0.84600
C920        C  0.30070102  0.83139457  0.84324576     0.90800
O921        O  0.50487360  0.96754716  0.63176103    -0.72900
O922        O  0.50774421  0.95888445  0.69940244    -0.73900
O923        O  0.46436366  0.92851379  0.66430207    -0.62500
O924        O  0.05577983  0.01868705  0.65759222    -0.70900
O925        O  0.01709881  0.56002753  0.65728838    -0.70500
O926        O  0.43170975  0.47696605  0.67255274    -0.61700
O927        O  0.47514063  0.50991534  0.70609402    -0.74200
O928        O  0.46981904  0.51352014  0.63801449    -0.73000
Cu929      Cu  0.50750721  0.96147636  0.66543957     1.04600
Cu930      Cu  0.47100451  0.51340253  0.67217976     1.04300
C931        C  0.48806294  0.49061885  0.62636827     0.93300
C932        C  0.49471309  0.48574450  0.71573824     0.92400
C933        C  0.43675401  0.44280344  0.67118570     0.84600
C934        C  0.04851294  0.54579498  0.65947768     0.90800
O935        O  0.47817473  0.79475786  0.67225156    -0.72900
O936        O  0.05598602  0.74595215  0.66070618    -0.73900
O937        O  0.51960682  0.76282747  0.63736421    -0.62500
O938        O  0.52087597  0.75846718  0.70545920    -0.70900
O939        O  0.48535138  0.71026769  0.70406643    -0.70500
O940        O  0.48367759  0.71472154  0.63650759    -0.61700
O941        O  0.01897488  0.69869014  0.66292888    -0.74200
O942        O  0.44227377  0.74653281  0.67143824    -0.73000
Cu943      Cu  0.52166813  0.76246417  0.67142397     1.04600
Cu944      Cu  0.48338276  0.71086304  0.67026110     1.04300
C945        C  0.44666245  0.78085762  0.67174608     0.93300
C946        C  0.05080146  0.71189239  0.66227372     0.92400
C947        C  0.50116077  0.73951660  0.62633637     0.84600
C948        C  0.50320608  0.73352381  0.71551579     0.90800
O949        O  0.26137317  0.93320933  0.66255029    -0.72900
O950        O  0.18176329  0.00752906  0.66113591    -0.73900
O951        O  0.21676197  0.96404783  0.62796983    -0.62500
O952        O  0.22593520  0.97718810  0.69555144    -0.70900
O953        O  0.26541315  0.52910178  0.69422039    -0.70500
O954        O  0.25921910  0.51619877  0.62670418    -0.61700
O955        O  0.22087196  0.55808440  0.65930276    -0.74200
O956        O  0.30352924  0.48703287  0.66137194    -0.73000
Cu957      Cu  0.21996131  0.96893608  0.66199784     1.04600
Cu958      Cu  0.26373132  0.52414243  0.66024083     1.04300
C959        C  0.29807957  0.45322336  0.66435587     0.93300
C960        C  0.18902650  0.54509830  0.66119680     0.92400
C961        C  0.23972594  0.49096071  0.61839159     0.84600
C962        C  0.24695408  0.50867450  0.70723847     0.90800
O963        O  0.30883687  0.76082131  0.66122046    -0.72900
O964        O  0.22194701  0.69801679  0.66162873    -0.73900
O965        O  0.26542272  0.72870664  0.62717341    -0.62500
O966        O  0.26519460  0.73142237  0.69539480    -0.70900
O967        O  0.23084573  0.78089685  0.69436062    -0.70500
O968        O  0.23233782  0.77919850  0.62674423    -0.61700
O969        O  0.18807473  0.74807926  0.66047860    -0.74200
O970        O  0.27589698  0.81152680  0.66114923    -0.73000
Cu971      Cu  0.26660853  0.72804188  0.66130928     1.04600
Cu972      Cu  0.23046464  0.78161581  0.66057776     1.04300
C973        C  0.30652531  0.79528320  0.66183470     0.93300
C974        C  0.19106908  0.71358755  0.66123998     0.92400
C975        C  0.24886283  0.75371172  0.61632540     0.84600
C976        C  0.24808832  0.75689292  0.70563227     0.90800
C977        C  0.40063984  0.81161507  0.64887097    -0.13300
C978        C  0.41455452  0.80388692  0.67029609     0.08800
C979        C  0.39240652  0.80788266  0.68926243    -0.13300
C980        C  0.35528952  0.81403745  0.68648700    -0.13300
C981        C  0.34035264  0.81483512  0.66475772     0.08800
C982        C  0.36340318  0.81707956  0.64608551    -0.13300
H983        H  0.41755971  0.80830505  0.63407772     0.12800
H984        H  0.40284336  0.80164684  0.70587586     0.12800
H985        H  0.33772735  0.81179305  0.70104882     0.12800
H986        H  0.35222929  0.81720201  0.62920398     0.12800
C987        C  0.10221654  0.68751718  0.68304423    -0.13300
C988        C  0.08284733  0.68883131  0.66276882     0.08800
C989        C  0.10130512  0.68441220  0.64230933    -0.13300
C990        C  0.13904677  0.68664095  0.64189313    -0.13300
C991        C  0.15798924  0.69241491  0.66199563     0.08800
C992        C  0.13997904  0.68954607  0.68265634    -0.13300
H993        H  0.08824545  0.69124634  0.69894296     0.12800
H994        H  0.08659307  0.68571833  0.62651687     0.12800
H995        H  0.15274055  0.68909154  0.62583124     0.12800
H996        H  0.15443623  0.69423214  0.69828488     0.12800
C997        C  0.35066278  0.42362003  0.64652318    -0.13300
C998        C  0.32968697  0.42938272  0.66587377     0.08800
C999        C  0.34135597  0.91643493  0.68199464    -0.13300
C1000       C  0.37915446  0.91637862  0.68367210    -0.13300
C1001       C  0.40439229  0.42047042  0.66981175     0.08800
C1002       C  0.38806459  0.41839025  0.64852836    -0.13300
H1003       H  0.33909285  0.42816930  0.62998547     0.12800
H1004       H  0.32544530  0.91983396  0.69720568     0.12800
H1005       H  0.39148765  0.91959696  0.70012143     0.12800
H1006       H  0.40458288  0.41964953  0.63345761     0.12800
C1007       C  0.09939740  0.57266990  0.67978140    -0.13300
C1008       C  0.08125646  0.56775448  0.65926357     0.08800
C1009       C  0.10069486  0.56993011  0.63905952    -0.13300
C1010       C  0.13859024  0.57023645  0.63955123    -0.13300
C1011       C  0.15679181  0.56809902  0.66023758     0.08800
C1012       C  0.13725576  0.57288756  0.68026869    -0.13300
H1013       H  0.08472166  0.57059633  0.69553087     0.12800
H1014       H  0.08705008  0.56567405  0.62310804     0.12800
H1015       H  0.15331756  0.56606657  0.62395920     0.12800
H1016       H  0.15093701  0.57082178  0.69638038     0.12800
C1017       C  0.22823780  0.78851648  0.76532450    -0.13300
C1018       C  0.25076820  0.76575822  0.77821467     0.08800
C1019       C  0.27198125  0.73948312  0.76703566    -0.13300
C1020       C  0.27076104  0.73615353  0.74352432    -0.13300
C1021       C  0.24850785  0.75920710  0.73063180     0.08800
C1022       C  0.22722557  0.78537681  0.74184874    -0.13300
H1023       H  0.21162296  0.80910362  0.77335880     0.12800
H1024       H  0.28957315  0.72145761  0.77646059     0.12800
H1025       H  0.28757611  0.71579169  0.73543249     0.12800
H1026       H  0.20979339  0.80362225  0.73247207     0.12800
C1027       C  0.33110371  0.88098497  0.86269560    -0.13300
C1028       C  0.32373577  0.86323391  0.84232829     0.08800
C1029       C  0.32503016  0.88253523  0.82210155    -0.13300
C1030       C  0.32753420  0.92018445  0.82259665    -0.13300
C1031       C  0.32819923  0.93838557  0.84332648     0.08800
C1032       C  0.33308743  0.91868600  0.86322153    -0.13300
H1033       H  0.32967803  0.86639017  0.87847226     0.12800
H1034       H  0.31881536  0.86918967  0.80630258     0.12800
H1035       H  0.32316455  0.93511416  0.80713452     0.12800
H1036       H  0.33308733  0.93242561  0.87936446     0.12800
C1037       C  0.17825280  0.63559898  0.83399643    -0.13300
C1038       C  0.18716600  0.61648739  0.85359201     0.08800
C1039       C  0.18832840  0.63484088  0.87426137    -0.13300
C1040       C  0.18860716  0.67257534  0.87458520    -0.13300
C1041       C  0.18720356  0.69167368  0.85426534     0.08800
C1042       C  0.17815802  0.67338858  0.83434998    -0.13300
H1043       H  0.17756804  0.62177332  0.81788734     0.12800
H1044       H  0.19550483  0.62041878  0.88951582     0.12800
H1045       H  0.19585655  0.68635624  0.89006797     0.12800
H1046       H  0.17727389  0.68781815  0.81849524     0.12800
C1047       C  0.23018604  0.99521722  0.76660771    -0.13300
C1048       C  0.24997885  0.52480711  0.77961702     0.08800
C1049       C  0.27367511  0.54382040  0.76536122    -0.13300
C1050       C  0.27259592  0.53877597  0.74193734    -0.13300
C1051       C  0.24789036  0.51445603  0.73211672     0.08800
C1052       C  0.22719835  0.98941677  0.74331875    -0.13300
H1053       H  0.21154094  0.98148108  0.77773469     0.12800
H1054       H  0.29342763  0.56236234  0.77232108     0.12800
H1055       H  0.29143703  0.55365931  0.73153502     0.12800
H1056       H  0.20618123  0.97157116  0.73712982     0.12800
C1057       C  0.47980646  0.70430100  0.77495727    -0.13300
C1058       C  0.50212338  0.72663438  0.78820438     0.08800
C1059       C  0.01203357  0.79709886  0.76410384    -0.13300
C1060       C  0.01520493  0.79214507  0.74071966    -0.13300
C1061       C  0.50310974  0.73134435  0.74052276     0.08800
C1062       C  0.48037576  0.70654390  0.75147271    -0.13300
H1063       H  0.46179814  0.68493860  0.78273499     0.12800
H1064       H  0.03073400  0.81516388  0.77252799     0.12800
H1065       H  0.03623139  0.80657168  0.73178089     0.12800
H1066       H  0.46274956  0.68888709  0.74188713     0.12800
C1067       C  0.42916121  0.86008728  0.83422171    -0.13300
C1068       C  0.91231265  0.95494176  0.84211951     0.08800
C1069       C  0.90520156  0.93528723  0.86171919    -0.13300
C1070       C  0.90294182  0.89765677  0.86062590    -0.13300
C1071       C  0.42735641  0.80578506  0.85677401     0.08800
C1072       C  0.42493393  0.82265581  0.83570715    -0.13300
H1073       H  0.43347250  0.87220821  0.81785564     0.12800
H1074       H  0.90669408  0.94832525  0.87805667     0.12800
H1075       H  0.90300512  0.88242790  0.87620017     0.12800
H1076       H  0.42668205  0.80665488  0.82041737     0.12800
C1077       C  0.57371914  0.57714771  0.83961883    -0.13300
C1078       C  0.04747009  0.62991136  0.85013278     0.08800
C1079       C  0.04629593  0.64745751  0.87109496    -0.13300
C1080       C  0.04314741  0.68508170  0.87200545    -0.13300
C1081       C  0.56722782  0.63457843  0.85873178     0.08800
C1082       C  0.57279243  0.61486245  0.83885067    -0.13300
H1083       H  0.57218873  0.56206415  0.82397324     0.12800
H1084       H  0.04125266  0.63208590  0.88628294     0.12800
H1085       H  0.03611951  0.69793522  0.88784879     0.12800
H1086       H  0.57050021  0.62808639  0.82264397     0.12800
C1087       C  0.47702653  0.50554431  0.77782323    -0.13300
C1088       C  0.49983519  0.48020063  0.78853404     0.08800
C1089       C  0.01676402  0.00816415  0.76601419    -0.13300
C1090       C  0.01883034  0.00350298  0.74254544    -0.13300
C1091       C  0.49685246  0.48430053  0.74078578     0.08800
C1092       C  0.47566319  0.50766754  0.75424934    -0.13300
H1093       H  0.46017296  0.52376224  0.78766456     0.12800
H1094       H  0.03485800  0.99258048  0.77666860     0.12800
H1095       H  0.03853401  0.98454926  0.73573719     0.12800
H1096       H  0.45770916  0.52741102  0.74657051     0.12800
C1097       C  0.26287016  0.79120233  0.91560350    -0.13200
C1098       C  0.26678441  0.79558398  0.93563353    -0.14800
C1099       C  0.29421446  0.94025667  0.00205525    -0.16400
C1100       C  0.26633096  0.91639289  0.00264660    -0.31600
H1101       H  0.32178666  0.92968823  0.00149815     0.12600
H1102       H  0.23870349  0.92677997  0.00337267     0.13200
C1103       C  0.26729891  0.66559681  0.00617361    -0.16400
C1104       C  0.29395740  0.69062916  0.00479274    -0.31600
H1105       H  0.23931516  0.67478104  0.00754144     0.12600
H1106       H  0.32191186  0.68133367  0.00343483     0.13200
C1107       C  0.28269079  0.04872889  0.93285111    -0.13200
C1108       C  0.28107161  0.04503814  0.91258387    -0.14800
C1109       C  0.95765894  0.80890752  0.93401079    -0.13200
C1110       C  0.96233502  0.80488059  0.91394478    -0.14800
C1111       C  0.94387088  0.92956078  0.00156330    -0.16400
C1112       C  0.97257856  0.95203734  0.00362177    -0.31600
H1113       H  0.45910229  0.83185131  0.01547212     0.12600
H1114       H  0.99952000  0.94017422  0.00519902     0.13200
C1115       C  0.94329837  0.70193231  0.00385216    -0.16400
C1116       C  0.97222787  0.67912962  0.00362812    -0.31600
H1117       H  0.46044554  0.58003401  0.01588759     0.12600
H1118       H  0.99924685  0.69076080  0.00346806     0.13200
C1119       C  0.96850531  0.05481680  0.91322740    -0.13200
C1120       C  0.96804676  0.05902593  0.93348670    -0.14800
C1121       C  0.24896857  0.75612777  0.57169698    -0.13200
C1122       C  0.24894148  0.75363336  0.59202020    -0.14800
C1123       C  0.23731334  0.48710530  0.59418778    -0.13200
C1124       C  0.23635950  0.48637476  0.57378055    -0.14800
C1125       C  0.38732375  0.73393909  0.50910598    -0.16400
C1126       C  0.36830856  0.76556899  0.50842427    -0.31600
H1127       H  0.37242357  0.70865632  0.50863222     0.12600
H1128       H  0.38319234  0.79081233  0.50954272     0.13200
C1129       C  0.11728476  0.75769321  0.49869815    -0.16400
C1130       C  0.14012861  0.78608604  0.50161961    -0.31600
H1131       H  0.12954585  0.73118275  0.49603739     0.12600
H1132       H  0.12857113  0.81281888  0.50453513     0.13200
C1133       C  0.49902833  0.73968733  0.58175724    -0.13200
C1134       C  0.50007531  0.74085130  0.60209879    -0.14800
C1135       C  0.35138992  0.46906409  0.50837935    -0.16400
C1136       C  0.37903857  0.49300154  0.50854106    -0.31600
H1137       H  0.35577278  0.93901455  0.50710986     0.12600
H1138       H  0.37255708  0.52163146  0.50713397     0.13200
C1139       C  0.10288426  0.49249511  0.50071139    -0.16400
C1140       C  0.12837622  0.51848279  0.50366491    -0.31600
H1141       H  0.10914252  0.96261585  0.49514706     0.12600
H1142       H  0.11968161  0.54626584  0.50649974     0.13200
C1143       C  0.48672009  0.49171592  0.60204417    -0.13200
C1144       C  0.48659536  0.49002831  0.58165574    -0.14800
C1145       C  0.27210421  0.80345684  0.41689090    -0.13200
C1146       C  0.26676866  0.79733866  0.43667865    -0.14800
C1147       C  0.25246417  0.01246354  0.41362798    -0.13200
C1148       C  0.24871003  0.00724658  0.43366197    -0.14800
C1149       C  0.51204430  0.70235622  0.42587374    -0.13200
C1150       C  0.50859700  0.70774014  0.44582993    -0.14800
C1151       C  0.41110964  0.81408258  0.37067761    -0.13300
C1152       C  0.39269075  0.81695624  0.35012573     0.08800
C1153       C  0.41016279  0.80699453  0.33007573    -0.13300
C1154       C  0.44366465  0.78936823  0.33087762    -0.13300
C1155       C  0.45962472  0.78182029  0.35173197     0.08800
C1156       C  0.44469341  0.79644420  0.37147787    -0.13300
H1157       H  0.39756102  0.82108401  0.38629562     0.12800
H1158       H  0.39588124  0.80862183  0.31414428     0.12800
H1159       H  0.45472080  0.77765989  0.31557736     0.12800
H1160       H  0.45658340  0.79017585  0.38771158     0.12800
C1161       C  0.11222798  0.83809737  0.34551704    -0.13300
C1162       C  0.09534844  0.80410921  0.34531153     0.08800
C1163       C  0.11683034  0.77259539  0.34494879    -0.13300
C1164       C  0.15448574  0.77494713  0.34501653    -0.13300
C1165       C  0.17145636  0.80886791  0.34541006     0.08800
C1166       C  0.15003631  0.84046320  0.34553608    -0.13300
H1167       H  0.09625950  0.86281650  0.34564781     0.12800
H1168       H  0.10457356  0.74600902  0.34478968     0.12800
H1169       H  0.17027160  0.75010959  0.34493448     0.12800
H1170       H  0.16244988  0.86697131  0.34578180     0.12800
C1171       C  0.49492426  0.94077666  0.44415769    -0.13200
C1172       C  0.49957473  0.93200941  0.42470987    -0.14800
C1173       C  0.39054722  0.03301439  0.36336206    -0.11700
C1174       C  0.36906129  0.02501804  0.34453495     0.08800
C1175       C  0.38630594  0.50239227  0.33023209    -0.13300
C1176       C  0.42106152  0.48796944  0.33078297    -0.13300
C1177       C  0.43919274  0.99742675  0.34705457     0.08800
C1178       C  0.42580048  0.01898215  0.36467436    -0.13300
H1179       H  0.37887669  0.04656678  0.37787421     0.12800
H1180       H  0.36810931  0.49428524  0.31679659     0.12800
H1181       H  0.42911418  0.46859471  0.31794720     0.12800
H1182       H  0.44088156  0.02154290  0.38026112     0.12800
C1183       C  0.09461445  0.51327281  0.34326315    -0.13300
C1184       C  0.07267970  0.03736151  0.34371056     0.08800
C1185       C  0.09044416  0.00378235  0.34190831    -0.13300
C1186       C  0.12817966  0.00207261  0.34190701    -0.13300
C1187       C  0.14858908  0.03393097  0.34368947     0.08800
C1188       C  0.13233471  0.51062297  0.34366726    -0.13300
H1189       H  0.07879304  0.48864642  0.34333986     0.12800
H1190       H  0.07524157  0.97883286  0.34072747     0.12800
H1191       H  0.14131658  0.97582288  0.34070503     0.12800
H1192       H  0.14475916  0.48397202  0.34395564     0.12800
C1193       C  0.29011658  0.80822052  0.07224683    -0.13200
C1194       C  0.29115423  0.80975904  0.09258598    -0.14800
C1195       C  0.27033221  0.79110389  0.24305920    -0.13300
C1196       C  0.28731026  0.81905778  0.23111142     0.08800
C1197       C  0.30345709  0.84747673  0.24333789    -0.13300
C1198       C  0.30233039  0.84796569  0.26700353    -0.13300
C1199       C  0.28583331  0.81958390  0.27885438     0.08800
C1200       C  0.26995668  0.79117283  0.26658964    -0.13300
H1201       H  0.25774536  0.76877352  0.23420524     0.12800
H1202       H  0.31668328  0.86945289  0.23460436     0.12800
H1203       H  0.31493891  0.87009969  0.27603168     0.12800
H1204       H  0.25689370  0.76900239  0.27524160     0.12800
C1205       C  0.29866522  0.56015197  0.09575731    -0.13200
C1206       C  0.29626692  0.55825973  0.07540655    -0.14800
C1207       C  0.21050181  0.95712493  0.17845666    -0.13300
C1208       C  0.21453776  0.97572115  0.15807495     0.08800
C1209       C  0.21324032  0.95640662  0.13775346    -0.13300
C1210       C  0.21600586  0.91873178  0.13799495    -0.13300
C1211       C  0.21933794  0.90059057  0.15857145     0.08800
C1212       C  0.21314678  0.91942965  0.17871562    -0.13300
H1213       H  0.21194095  0.97166111  0.19430915     0.12800
H1214       H  0.21675773  0.97039922  0.12189529     0.12800
H1215       H  0.22117413  0.90452824  0.12232132     0.12800
H1216       H  0.21612517  0.90576840  0.19474390     0.12800
C1217       C  0.36321408  0.67346626  0.18538496    -0.13300
C1218       C  0.36182719  0.65398479  0.16514675     0.08800
C1219       C  0.36618390  0.67209839  0.14465705    -0.13300
C1220       C  0.36482571  0.70983093  0.14421331    -0.13300
C1221       C  0.35916853  0.72912270  0.16426431     0.08800
C1222       C  0.36188236  0.71118062  0.18494423    -0.13300
H1223       H  0.35951757  0.65972680  0.20131143     0.12800
H1224       H  0.36475790  0.65730427  0.12890101     0.12800
H1225       H  0.36233707  0.72335880  0.12811258     0.12800
H1226       H  0.35711913  0.72575286  0.20053736     0.12800
C1227       C  0.30377936  0.52939904  0.24534431    -0.13300
C1228       C  0.29242675  0.56109556  0.23431551     0.08800
C1229       C  0.26327249  0.08333168  0.24296084    -0.13300
C1230       C  0.25885531  0.07895031  0.26629610    -0.13300
C1231       C  0.26573989  0.04524536  0.27649975     0.08800
C1232       C  0.29671089  0.52452995  0.26828008    -0.13300
H1233       H  0.31702011  0.50777586  0.23604894     0.12800
H1234       H  0.25756286  0.10946199  0.23547597     0.12800
H1235       H  0.24986367  0.10183200  0.27632591     0.12800
H1236       H  0.30529653  0.49952876  0.27621742     0.12800
C1237       C  0.93943306  0.82131977  0.07135260    -0.13200
C1238       C  0.94114106  0.82310919  0.09169620    -0.14800
C1239       C  0.48638367  0.68600512  0.25403545    -0.13300
C1240       C  0.51822270  0.68662071  0.24108114     0.08800
C1241       C  0.99815119  0.79781656  0.23842384    -0.13300
C1242       C  0.00231176  0.79461507  0.26174864    -0.13300
C1243       C  0.52190684  0.68415475  0.28853119     0.08800
C1244       C  0.48820950  0.68429788  0.27746736    -0.13300
H1245       H  0.45996514  0.68659180  0.24599625     0.12800
H1246       H  0.01458868  0.78071108  0.22759708     0.12800
H1247       H  0.02172470  0.77514896  0.26828427     0.12800
H1248       H  0.46314187  0.68402066  0.28699949     0.12800
C1249       C  0.96790355  0.07218023  0.07120574    -0.13200
C1250       C  0.96669956  0.07453603  0.09152005    -0.14800
C1251       C  0.02926105  0.96476745  0.13492584    -0.13300
C1252       C  0.03061130  0.98328168  0.15553456     0.08800
C1253       C  0.58030739  0.83869328  0.18933491    -0.13300
C1254       C  0.57704689  0.80120758  0.19027610    -0.13300
C1255       C  0.02599046  0.90837319  0.15516593     0.08800
C1256       C  0.02678914  0.92714760  0.13474341    -0.13300
H1257       H  0.02386600  0.97940461  0.11947593     0.12800
H1258       H  0.57837444  0.85410418  0.20485142     0.12800
H1259       H  0.57319577  0.78834911  0.20647102     0.12800
H1260       H  0.01977810  0.91354006  0.11915895     0.12800
C1261       C  0.44675152  0.54379282  0.15719922    -0.13300
C1262       C  0.89110458  0.66332943  0.16382242     0.08800
C1263       C  0.88959794  0.68174588  0.18445622    -0.13300
C1264       C  0.88761153  0.71942436  0.18474407    -0.13300
C1265       C  0.88756303  0.73839421  0.16437427     0.08800
C1266       C  0.44248815  0.58125483  0.15590293    -0.13300
H1267       H  0.44928742  0.52830009  0.14174990     0.12800
H1268       H  0.89553831  0.66759008  0.20000350     0.12800
H1269       H  0.89251653  0.73354366  0.20046595     0.12800
H1270       H  0.44233194  0.59397466  0.13948133     0.12800
C1271       C  0.97205919  0.60380069  0.24604919    -0.13300
C1272       C  0.51399235  0.93026780  0.24015305     0.08800
C1273       C  0.49256273  0.90403138  0.25088794    -0.13300
C1274       C  0.49516725  0.89847718  0.27421713    -0.13300
C1275       C  0.51926646  0.91903123  0.28740346     0.08800
C1276       C  0.97257942  0.60228490  0.26971311    -0.13300
H1277       H  0.98653775  0.62536700  0.23769586     0.12800
H1278       H  0.47370444  0.88776651  0.24125762     0.12800
H1279       H  0.47786314  0.87846699  0.28197304     0.12800
H1280       H  0.98773718  0.62240965  0.27903625     0.12800
O1281       O  0.93254709  0.55822889  0.19690974    -0.72900
O1282       O  0.93678916  0.55705826  0.12877941    -0.73900
O1283       O  0.96860242  0.51590272  0.16362288    -0.62500
O1284       O  0.90655686  0.09617975  0.16185218    -0.70900
O1285       O  0.50001300  0.00282230  0.17418875    -0.70500
O1286       O  0.57947803  0.41493367  0.17192977    -0.61700
O1287       O  0.53510368  0.96652955  0.13797162    -0.74200
O1288       O  0.53488805  0.95650424  0.20567062    -0.73000
Cu1289     Cu  0.93290091  0.55638686  0.16281896     1.04600
Cu1290     Cu  0.53648577  0.96296408  0.17196906     1.04300
C1291       C  0.95533895  0.57700875  0.20822609     0.93300
C1292       C  0.51130186  0.94994283  0.12621834     0.92400
C1293       C  0.56472864  0.38399015  0.16981212     0.84600
C1294       C  0.46566955  0.99811389  0.17372658     0.90800
O1295       O  0.50036151  0.13160987  0.16967719    -0.72900
O1296       O  0.57074244  0.21279597  0.16648243    -0.73900
O1297       O  0.54254974  0.17009533  0.20200804    -0.62500
O1298       O  0.52817694  0.17478641  0.13438614    -0.70900
O1299       O  0.93055804  0.34195793  0.13085587    -0.70500
O1300       O  0.94829201  0.34050844  0.19830118    -0.61700
O1301       O  0.97185532  0.38363387  0.16223149    -0.74200
O1302       O  0.90627013  0.29882114  0.16738461    -0.73000
Cu1303     Cu  0.53703772  0.17083508  0.16796243     1.04600
Cu1304     Cu  0.93759542  0.34261132  0.16480818     1.04300
C1305       C  0.46627814  0.13701255  0.17204993     0.93300
C1306       C  0.55777309  0.24455930  0.16896467     0.92400
C1307       C  0.97513197  0.32223767  0.20610513     0.84600
C1308       C  0.50297786  0.19490442  0.12631125     0.90800
O1309       O  0.79750154  0.96195304  0.17115796    -0.72900
O1310       O  0.73553123  0.38288232  0.16855398    -0.73900
O1311       O  0.76490519  0.92645924  0.13392454    -0.62500
O1312       O  0.76103183  0.91497834  0.20183078    -0.70900
O1313       O  0.71268051  0.95097217  0.20279694    -0.70500
O1314       O  0.71672873  0.96286668  0.13548498    -0.61700
O1315       O  0.68622605  0.41791463  0.17041944    -0.74200
O1316       O  0.74913806  0.99825865  0.17283519    -0.73000
Cu1317     Cu  0.76492081  0.91941421  0.16775193     1.04600
Cu1318     Cu  0.71325777  0.95829724  0.16925078     1.04300
C1319       C  0.78354609  0.99342291  0.17290811     0.93300
C1320       C  0.70110659  0.38674707  0.16903227     0.92400
C1321       C  0.74122369  0.94639915  0.12412355     0.84600
C1322       C  0.73572795  0.93082798  0.21300002     0.90800
O1323       O  0.71913701  0.16885058  0.20249077    -0.72900
O1324       O  0.73115884  0.17618640  0.13449524    -0.73900
O1325       O  0.75816682  0.12999952  0.16897850    -0.62500
O1326       O  0.69164043  0.21507363  0.16790205    -0.70900
O1327       O  0.74029783  0.24923774  0.17384810    -0.70500
O1328       O  0.80741780  0.16407820  0.17288587    -0.61700
O1329       O  0.77894800  0.21173547  0.13927726    -0.74200
O1330       O  0.76919163  0.20120474  0.20704811    -0.73000
Cu1331     Cu  0.72339423  0.17121384  0.16827163     1.04600
Cu1332     Cu  0.77554405  0.20798027  0.17340374     1.04300
C1333       C  0.74292158  0.18317923  0.21544759     0.93300
C1334       C  0.75674830  0.19531924  0.12624255     0.92400
C1335       C  0.79248135  0.13319359  0.17128314     0.84600
C1336       C  0.70609490  0.24591452  0.17088144     0.90800
O1337       O  0.96617343  0.06388903  0.38283387    -0.72900
O1338       O  0.96310647  0.08213507  0.31532132    -0.73900
O1339       O  0.91015310  0.07801173  0.35034143    -0.62500
O1340       O  0.57131619  0.89855090  0.36139808    -0.70900
O1341       O  0.53663346  0.35736375  0.36424463    -0.70500
O1342       O  0.91188536  0.53168901  0.35031637    -0.61700
O1343       O  0.95880910  0.53632296  0.31347210    -0.74200
O1344       O  0.97044663  0.51550907  0.37926499    -0.73000
Cu1345     Cu  0.96431933  0.07564597  0.34935212     1.04600
Cu1346     Cu  0.96467692  0.52446526  0.34613862     1.04300
C1347       C  0.97455440  0.54127052  0.39334067     0.93300
C1348       C  0.95981959  0.56853935  0.30578145     0.92400
C1349       C  0.89743502  0.56245044  0.35455128     0.84600
C1350       C  0.56969951  0.36700897  0.36572438     0.90800
O1351       O  0.00086301  0.31305905  0.38343955    -0.72900
O1352       O  0.99454955  0.33547334  0.31638839    -0.73900
O1353       O  0.94383120  0.32085939  0.35065359    -0.62500
O1354       O  0.58477037  0.16659561  0.35982165    -0.70900
O1355       O  0.53508903  0.13276967  0.36155191    -0.70500
O1356       O  0.95005044  0.26276578  0.34141357    -0.61700
O1357       O  0.00297031  0.27701781  0.30929662    -0.74200
O1358       O  0.00440239  0.25439742  0.37547441    -0.73000
Cu1359     Cu  0.99760469  0.32675549  0.35019302     1.04600
Cu1360     Cu  0.00367952  0.26405449  0.34199173     1.04300
C1361       C  0.00380080  0.28008989  0.38990299     0.93300
C1362       C  0.99768530  0.30929016  0.30230510     0.92400
C1363       C  0.93011938  0.29059725  0.34495210     0.84600
C1364       C  0.56954513  0.13590372  0.36229168     0.90800
O1365       O  0.76252642  0.41242425  0.32509612    -0.72900
O1366       O  0.75986060  0.41891644  0.39315937    -0.73900
O1367       O  0.73259169  0.36874478  0.36052797    -0.62500
O1368       O  0.78884348  0.46122993  0.35840806    -0.70900
O1369       O  0.72834818  0.98838249  0.35118639    -0.70500
O1370       O  0.67314335  0.89715114  0.35764166    -0.61700
O1371       O  0.70194218  0.94902548  0.38807722    -0.74200
O1372       O  0.70024909  0.93706801  0.32060588    -0.73000
Cu1373     Cu  0.76280810  0.41406118  0.35928277     1.04600
Cu1374     Cu  0.69900175  0.94374588  0.35432999     1.04300
C1375       C  0.73785021  0.42850964  0.31359013     0.93300
C1376       C  0.73491693  0.43774423  0.40263387     0.92400
C1377       C  0.69809101  0.37195106  0.36031340     0.84600
C1378       C  0.77265326  0.49189317  0.35741205     0.90800
O1379       O  0.75833816  0.24752247  0.34919641    -0.72900
O1380       O  0.68678669  0.16979569  0.36323875    -0.73900
O1381       O  0.72764754  0.22042903  0.38922808    -0.62500
O1382       O  0.71707289  0.19857202  0.32298976    -0.70900
O1383       O  0.76135690  0.15774150  0.32484950    -0.70500
O1384       O  0.77088796  0.17857197  0.39220335    -0.61700
O1385       O  0.73019024  0.12777334  0.36505536    -0.74200
O1386       O  0.80126369  0.20506524  0.35183840    -0.73000
Cu1387     Cu  0.72072665  0.21028061  0.35617233     1.04600
Cu1388     Cu  0.76737936  0.16571082  0.35868226     1.04300
C1389       C  0.79150580  0.23763313  0.34801144     0.93300
C1390       C  0.69682422  0.13685993  0.36590189     0.92400
C1391       C  0.75160160  0.20398655  0.40095885     0.84600
C1392       C  0.73850938  0.17618815  0.31318867     0.90800
O1393       O  0.98382446  0.48224564  0.46735131    -0.72900
O1394       O  0.99120405  0.46281815  0.53496650    -0.73900
O1395       O  0.93255838  0.47279824  0.50368081    -0.62500
O1396       O  0.53995700  0.43135398  0.52015539    -0.70900
O1397       O  0.54741706  0.98978243  0.50858381    -0.70500
O1398       O  0.93266412  0.03309461  0.50544482    -0.61700
O1399       O  0.99172589  0.02535879  0.53684906    -0.74200
O1400       O  0.98504873  0.03776827  0.46999236    -0.73000
Cu1401     Cu  0.98750898  0.46984120  0.50092611     1.04600
Cu1402     Cu  0.98872312  0.03298484  0.50352051     1.04300
C1403       C  0.98449263  0.51508937  0.46039385     0.93300
C1404       C  0.99099963  0.99396556  0.54567729     0.92400
C1405       C  0.91620745  0.50281277  0.50751246     0.84600
C1406       C  0.56228186  0.45751724  0.51711598     0.90800
O1407       O  0.56941981  0.19575746  0.51586592    -0.72900
O1408       O  0.96632029  0.22300772  0.50360975    -0.73900
O1409       O  0.01764539  0.23128430  0.46753815    -0.62500
O1410       O  0.02276299  0.22758496  0.53652169    -0.70900
O1411       O  0.01756250  0.28744756  0.53731369    -0.70500
O1412       O  0.01282457  0.29106591  0.46985902    -0.61700
O1413       O  0.95914333  0.28251551  0.50512702    -0.74200
O1414       O  0.57475079  0.25508380  0.51188102    -0.73000
Cu1415     Cu  0.02080297  0.22665484  0.50197254     1.04600
Cu1416     Cu  0.01535106  0.29047927  0.50364770     1.04300
C1417       C  0.58957682  0.22378229  0.51420017     0.93300
C1418       C  0.94532832  0.25051081  0.50507009     0.92400
C1419       C  0.01394791  0.26224541  0.45802856     0.84600
C1420       C  0.02016148  0.25734902  0.54761973     0.90800
O1421       O  0.73849799  0.43370426  0.48436417    -0.72900
O1422       O  0.74163708  0.45558469  0.55056139    -0.73900
O1423       O  0.68408806  0.44522491  0.51836781    -0.62500
O1424       O  0.79600897  0.44565949  0.51613755    -0.70900
O1425       O  0.79316998  0.00666006  0.50533316    -0.70500
O1426       O  0.68287340  0.00571916  0.50689828    -0.61700
O1427       O  0.73904331  0.01742761  0.53960873    -0.74200
O1428       O  0.73647329  0.99370803  0.47280555    -0.73000
Cu1429     Cu  0.74014299  0.44300247  0.51764595     1.04600
Cu1430     Cu  0.73785119  0.00789679  0.50589862     1.04300
C1431       C  0.73834918  0.45953506  0.47017845     0.93300
C1432       C  0.73944864  0.99139742  0.55377125     0.92400
C1433       C  0.66480234  0.97695680  0.51091691     0.84600
C1434       C  0.81078648  0.97723071  0.50876049     0.90800
O1435       O  0.76185584  0.26973022  0.47319602    -0.72900
O1436       O  0.76356041  0.29277795  0.54083615    -0.73900
O1437       O  0.81728155  0.28851790  0.50568680    -0.62500
O1438       O  0.70889022  0.27774576  0.50810351    -0.70900
O1439       O  0.71282110  0.21910450  0.51547576    -0.70500
O1440       O  0.82554064  0.23018567  0.51261232    -0.61700
O1441       O  0.77011561  0.23393687  0.54723898    -0.74200
O1442       O  0.76803595  0.21144406  0.48136587    -0.73000
Cu1443     Cu  0.76279285  0.28415574  0.50668439     1.04600
Cu1444     Cu  0.76948457  0.22162022  0.51444938     1.04300
C1445       C  0.76400904  0.23649458  0.46689093     0.93300
C1446       C  0.76653614  0.26617924  0.55457053     0.92400
C1447       C  0.83880841  0.26177438  0.50867276     0.84600
C1448       C  0.69336986  0.24768003  0.51210018     0.90800
O1449       O  0.54765128  0.45491101  0.04925132    -0.72900
O1450       O  0.54198895  0.45757381  0.98121195    -0.73900
O1451       O  0.54315711  0.01036132  0.01239176    -0.62500
O1452       O  0.54531424  0.40098122  0.01437487    -0.70900
O1453       O  0.93947302  0.50938652  0.00514727    -0.70500
O1454       O  0.93862559  0.12180167  0.00198586    -0.61700
O1455       O  0.93977159  0.56348171  0.97045100    -0.74200
O1456       O  0.93788979  0.56723820  0.03844819    -0.73000
Cu1457     Cu  0.54692646  0.45615399  0.01515711     1.04600
Cu1458     Cu  0.93698922  0.56545762  0.00440948     1.04300
C1459       C  0.51834305  0.45461303  0.06076220     0.93300
C1460       C  0.51098526  0.45814066  0.97152197     0.92400
C1461       C  0.51353343  0.02866360  0.01224007     0.84600
C1462       C  0.51572723  0.38298204  0.01515024     0.90800
O1463       O  0.52250232  0.20362069  0.04667646    -0.72900
O1464       O  0.51994031  0.20709106  0.97919659    -0.73900
O1465       O  0.52107943  0.26162039  0.01400159    -0.62500
O1466       O  0.51996502  0.14946477  0.01189156    -0.70900
O1467       O  0.91514796  0.26085158  0.00497591    -0.70500
O1468       O  0.91595833  0.37064749  0.00244340    -0.61700
O1469       O  0.91884998  0.31282711  0.96955225    -0.74200
O1470       O  0.91371033  0.31841764  0.03791859    -0.73000
Cu1471     Cu  0.52297618  0.20545754  0.01290616     1.04600
Cu1472     Cu  0.91388879  0.31574137  0.00366519     1.04300
C1473       C  0.49297638  0.20282749  0.05786388     0.93300
C1474       C  0.48959749  0.20817439  0.96885462     0.92400
C1475       C  0.49077926  0.27906382  0.01481000     0.84600
C1476       C  0.48937805  0.13285952  0.01195756     0.90800
O1477       O  0.76950622  0.45475766  0.04737479    -0.72900
O1478       O  0.76549673  0.45739467  0.97987518    -0.73900
O1479       O  0.76557763  0.01255764  0.01051373    -0.62500
O1480       O  0.76603158  0.39993188  0.01296809    -0.70900
O1481       O  0.70595939  0.40220934  0.01412397    -0.70500
O1482       O  0.70552578  0.01080948  0.01199378    -0.61700
O1483       O  0.70521126  0.45900002  0.98114021    -0.74200
O1484       O  0.70922978  0.45583783  0.04881001    -0.73000
Cu1485     Cu  0.76941501  0.45592764  0.01356710     1.04600
Cu1486     Cu  0.70508708  0.45736156  0.01501017     1.04300
C1487       C  0.74004831  0.45468429  0.05866169     0.93300
C1488       C  0.73480356  0.45931624  0.96996221     0.92400
C1489       C  0.73485288  0.02919689  0.01132680     0.84600
C1490       C  0.73534553  0.38353619  0.01347403     0.90800
O1491       O  0.78475503  0.20786875  0.97701648    -0.72900
O1492       O  0.79045827  0.20376062  0.04559727    -0.73900
O1493       O  0.78813686  0.15095982  0.00998933    -0.62500
O1494       O  0.78847941  0.26080099  0.01239600    -0.70900
O1495       O  0.72842325  0.26242409  0.01397084    -0.70500
O1496       O  0.72810437  0.15023697  0.01200106    -0.61700
O1497       O  0.73027675  0.20455760  0.04705054    -0.74200
O1498       O  0.72460295  0.20799042  0.97912455    -0.73000
Cu1499     Cu  0.78996757  0.20584056  0.01119139     1.04600
Cu1500     Cu  0.72575234  0.20632529  0.01311555     1.04300
C1501       C  0.75362404  0.20868416  0.96739857     0.93300
C1502       C  0.76098471  0.20329517  0.05703788     0.92400
C1503       C  0.75852560  0.13308457  0.01071862     0.84600
C1504       C  0.75893608  0.27914450  0.01330804     0.90800
O1505       O  0.56276740  0.98863490  0.85330816    -0.72900
O1506       O  0.49419068  0.41171800  0.85522407    -0.73900
O1507       O  0.52553451  0.45789983  0.82293037    -0.62500
O1508       O  0.52944631  0.44939531  0.89062433    -0.70900
O1509       O  0.95158881  0.56627057  0.87862686    -0.70500
O1510       O  0.96152101  0.55709437  0.81105607    -0.61700
O1511       O  0.92148271  0.52057888  0.84443127    -0.74200
O1512       O  0.98859563  0.10195223  0.84267275    -0.73000
Cu1513     Cu  0.52920478  0.45237367  0.85662910     1.04600
Cu1514     Cu  0.95491831  0.56300684  0.84464172     1.04300
C1515       C  0.54912848  0.02020574  0.85579044     0.93300
C1516       C  0.45974008  0.41562750  0.85598146     0.92400
C1517       C  0.98601824  0.53649500  0.80255369     0.84600
C1518       C  0.50558403  0.46555889  0.90267752     0.90800
O1519       O  0.49371037  0.27749012  0.85839087    -0.72900
O1520       O  0.55985670  0.19158017  0.85803564    -0.73900
O1521       O  0.53119743  0.23880789  0.82446907    -0.62500
O1522       O  0.52159572  0.23071975  0.89186175    -0.70900
O1523       O  0.93917897  0.27975159  0.88030156    -0.70500
O1524       O  0.95067643  0.27107719  0.81261270    -0.61700
O1525       O  0.97853325  0.23336996  0.85037755    -0.74200
O1526       O  0.91118007  0.31799740  0.84273111    -0.73000
Cu1527     Cu  0.52825606  0.23591568  0.85834390     1.04600
Cu1528     Cu  0.94322538  0.27415300  0.84646441     1.04300
C1529       C  0.92581609  0.34919095  0.84280526     0.93300
C1530       C  0.01291100  0.23763718  0.85152808     0.92400
C1531       C  0.97655536  0.28765920  0.80268124     0.84600
C1532       C  0.49540352  0.21268896  0.90024564     0.90800
O1533       O  0.79442478  0.45059632  0.85793790    -0.72900
O1534       O  0.73221361  0.03186113  0.85486914    -0.73900
O1535       O  0.76181579  0.98622194  0.88882453    -0.62500
O1536       O  0.77080601  0.99440459  0.82118401    -0.70900
O1537       O  0.72380851  0.95759531  0.81747310    -0.70500
O1538       O  0.71395222  0.95045950  0.88476808    -0.61700
O1539       O  0.68422889  0.99624191  0.85037971    -0.74200
O1540       O  0.74601335  0.41494729  0.85598111    -0.73000
Cu1541     Cu  0.76811000  0.99152333  0.85518238     1.04600
Cu1542     Cu  0.71725613  0.95273299  0.85086387     1.04300
C1543       C  0.78040592  0.41923100  0.85704199     0.93300
C1544       C  0.69813980  0.02766448  0.85194726     0.92400
C1545       C  0.73665359  0.96694372  0.89736876     0.84600
C1546       C  0.74821336  0.97752705  0.80864520     0.90800
O1547       O  0.72230433  0.23503877  0.88892370    -0.72900
O1548       O  0.72354637  0.24671376  0.82083213    -0.73900
O1549       O  0.68883222  0.19881763  0.85179336    -0.62500
O1550       O  0.75530470  0.28265339  0.85790913    -0.70900
O1551       O  0.80483777  0.24801468  0.85584049    -0.70500
O1552       O  0.73785598  0.16358185  0.84925885    -0.61700
O1553       O  0.77252201  0.21164809  0.81914379    -0.74200
O1554       O  0.77105598  0.19957940  0.88651188    -0.73000
Cu1555     Cu  0.72077726  0.24206944  0.85495429     1.04600
Cu1556     Cu  0.77312469  0.20427175  0.85264741     1.04300
C1557       C  0.74699883  0.21580619  0.89836120     0.93300
C1558       C  0.74883851  0.23149475  0.80930611     0.92400
C1559       C  0.70334221  0.16768264  0.84942218     0.84600
C1560       C  0.78978113  0.27905844  0.85758683     0.90800
O1561       O  0.01248353  0.47073609  0.62990921    -0.72900
O1562       O  0.00814461  0.48641812  0.69733447    -0.73900
O1563       O  0.96800321  0.44516869  0.66543715    -0.62500
O1564       O  0.55055109  0.49970449  0.66956723    -0.70900
O1565       O  0.51096588  0.04519560  0.66981650    -0.70500
O1566       O  0.93686593  0.99638807  0.65942149    -0.61700
O1567       O  0.97750445  0.03814030  0.69049262    -0.74200
O1568       O  0.97736684  0.02418838  0.62315635    -0.73000
Cu1569     Cu  0.01164105  0.47690830  0.66383354     1.04600
Cu1570     Cu  0.97623407  0.03282611  0.65669709     1.04300
C1571       C  0.99550097  0.99813106  0.61440851     0.93300
C1572       C  0.99641451  0.01739388  0.70319580     0.92400
C1573       C  0.94236394  0.96249619  0.66220235     0.84600
C1574       C  0.54274295  0.03148364  0.66873859     0.90800
O1575       O  0.98061225  0.32650618  0.65905748    -0.72900
O1576       O  0.57941864  0.22585721  0.67121837    -0.73900
O1577       O  0.02743652  0.29000878  0.62725690    -0.62500
O1578       O  0.01854733  0.29537455  0.69539958    -0.70900
O1579       O  0.98323397  0.24701156  0.69489845    -0.70500
O1580       O  0.99255207  0.24119598  0.62711204    -0.61700
O1581       O  0.54321910  0.17800771  0.66874878    -0.74200
O1582       O  0.94557236  0.27764560  0.65826041    -0.73000
Cu1583     Cu  0.02436301  0.29463291  0.66142719     1.04600
Cu1584     Cu  0.98675097  0.24255941  0.66096528     1.04300
C1585       C  0.94935471  0.31202810  0.65873881     0.93300
C1586       C  0.57486804  0.19166897  0.67008141     0.92400
C1587       C  0.01186047  0.26422322  0.61657627     0.84600
C1588       C  0.99886931  0.27241447  0.70586839     0.90800
O1589       O  0.76509566  0.43492452  0.66916328    -0.72900
O1590       O  0.68011674  0.50260623  0.67013507    -0.73900
O1591       O  0.72331861  0.47119048  0.63593469    -0.62500
O1592       O  0.72111854  0.46615625  0.70358694    -0.70900
O1593       O  0.76108130  0.02054142  0.70161414    -0.70500
O1594       O  0.75820911  0.02538751  0.63339499    -0.61700
O1595       O  0.71490709  0.05454069  0.66909146    -0.74200
O1596       O  0.80370156  0.99204824  0.66621650    -0.73000
Cu1597     Cu  0.72100424  0.46708546  0.66968274     1.04600
Cu1598     Cu  0.76071933  0.02493465  0.66756957     1.04300
C1599       C  0.80163837  0.95754518  0.66541437     0.93300
C1600       C  0.68446916  0.03831501  0.66917556     0.92400
C1601       C  0.74145069  0.00083489  0.62233812     0.84600
C1602       C  0.74552060  0.99408836  0.71151830     0.90800
O1603       O  0.81960342  0.27481481  0.66884613    -0.72900
O1604       O  0.74373734  0.19906605  0.66503754    -0.73900
O1605       O  0.78215709  0.24225357  0.63290687    -0.62500
O1606       O  0.78106812  0.23296850  0.70083587    -0.70900
O1607       O  0.74005752  0.27705798  0.70274907    -0.70500
O1608       O  0.74059701  0.28595174  0.63496133    -0.61700
O1609       O  0.70240525  0.24309294  0.66731765    -0.74200
O1610       O  0.77898671  0.31959705  0.67040094    -0.73000
Cu1611     Cu  0.78315428  0.23583848  0.66683167     1.04600
Cu1612     Cu  0.73895493  0.28290900  0.66894121     1.04300
C1613       C  0.81180480  0.30849702  0.66954848     0.93300
C1614       C  0.71079438  0.20947082  0.66625222     0.92400
C1615       C  0.76200879  0.26600779  0.62333636     0.84600
C1616       C  0.75985755  0.25321461  0.71250135     0.90800
C1617       C  0.89356843  0.33740439  0.64253406    -0.13300
C1618       C  0.91667669  0.33400924  0.66109713     0.08800
C1619       C  0.90256166  0.33755421  0.68291850    -0.13300
C1620       C  0.86508834  0.33687969  0.68619106    -0.13300
C1621       C  0.84200806  0.33343268  0.66758503     0.08800
C1622       C  0.85608966  0.33770169  0.64582278    -0.13300
H1623       H  0.90412297  0.33436121  0.62560816     0.12800
H1624       H  0.92021627  0.33463785  0.69742196     0.12800
H1625       H  0.85467443  0.33316874  0.70308028     0.12800
H1626       H  0.83855165  0.33470869  0.63128107     0.12800
C1627       C  0.62826955  0.17047212  0.68983911    -0.13300
C1628       C  0.60764114  0.16939019  0.67000504     0.08800
C1629       C  0.62554631  0.16635643  0.64924659    -0.13300
C1630       C  0.66259341  0.17397866  0.64797548    -0.13300
C1631       C  0.68153069  0.18318633  0.66759104     0.08800
C1632       C  0.66525852  0.17797892  0.68863045    -0.13300
H1633       H  0.61486895  0.17277343  0.70602779     0.12800
H1634       H  0.60999354  0.16532854  0.63376613     0.12800
H1635       H  0.67490290  0.17791027  0.63161000     0.12800
H1636       H  0.67964334  0.18508165  0.70393394     0.12800
C1637       C  0.85316211  0.93252983  0.64460149    -0.13300
C1638       C  0.83548334  0.93712643  0.66526176     0.08800
C1639       C  0.85132383  0.42704701  0.68748871    -0.13300
C1640       C  0.88879784  0.43120848  0.68559493    -0.13300
C1641       C  0.91068974  0.93938431  0.66363828     0.08800
C1642       C  0.89094613  0.93363927  0.64379192    -0.13300
H1643       H  0.83795870  0.93381020  0.62899362     0.12800
H1644       H  0.83904584  0.42853837  0.70404362     0.12800
H1645       H  0.90476636  0.43521190  0.70071993     0.12800
H1646       H  0.90415438  0.93580513  0.62755629     0.12800
C1647       C  0.59354892  0.05470573  0.69076464    -0.13300
C1648       C  0.57492652  0.05408469  0.67020307     0.08800
C1649       C  0.59347539  0.06203689  0.65025471    -0.13300
C1650       C  0.63129516  0.06426543  0.65043552    -0.13300
C1651       C  0.65031825  0.05826970  0.67053112     0.08800
C1652       C  0.63132896  0.05680117  0.69093051    -0.13300
H1653       H  0.57956722  0.04808197  0.70625266     0.12800
H1654       H  0.57942788  0.06115702  0.63422766     0.12800
H1655       H  0.64566500  0.06496693  0.63453009     0.12800
H1656       H  0.64571068  0.05163818  0.70653192     0.12800
C1657       C  0.72586125  0.25867012  0.77299821    -0.13300
C1658       C  0.75140724  0.23714810  0.78451193     0.08800
C1659       C  0.78015360  0.22154826  0.77213411    -0.13300
C1660       C  0.78309476  0.22702667  0.74887281    -0.13300
C1661       C  0.75751447  0.24845703  0.73735087     0.08800
C1662       C  0.72892115  0.26431039  0.74972329    -0.13300
H1663       H  0.70345183  0.27116961  0.78196688     0.12800
H1664       H  0.80049924  0.20500839  0.78042356     0.12800
H1665       H  0.80547375  0.21445715  0.73990616     0.12800
H1666       H  0.70858186  0.28076510  0.74136256     0.12800
C1667       C  0.81083144  0.33148690  0.87864364    -0.13300
C1668       C  0.81090381  0.31216223  0.85831533     0.08800
C1669       C  0.81432071  0.33087918  0.83793208    -0.13300
C1670       C  0.80999038  0.36840072  0.83761852    -0.13300
C1671       C  0.80320844  0.38699619  0.85774613     0.08800
C1672       C  0.80683518  0.36903364  0.87835915    -0.13300
H1673       H  0.80772203  0.31735440  0.89448492     0.12800
H1674       H  0.81394005  0.31626091  0.82208575     0.12800
H1675       H  0.80695686  0.38203410  0.82158955     0.12800
H1676       H  0.80131595  0.38317177  0.89401084     0.12800
C1677       C  0.67969328  0.07781562  0.82823898    -0.13300
C1678       C  0.67635503  0.06035454  0.84905660     0.08800
C1679       C  0.66798973  0.08074553  0.86830388    -0.13300
C1680       C  0.67010876  0.11845125  0.86753938    -0.13300
C1681       C  0.68100630  0.13536484  0.84759562     0.08800
C1682       C  0.68254977  0.11539760  0.82754829    -0.13300
H1683       H  0.68648306  0.06238161  0.81325532     0.12800
H1684       H  0.66558956  0.06761067  0.88451668     0.12800
H1685       H  0.66894156  0.13363406  0.88315996     0.12800
H1686       H  0.69111826  0.12816369  0.81204406     0.12800
C1687       C  0.71304747  0.46195551  0.77483978    -0.13300
C1688       C  0.74940112  0.98137900  0.78378208     0.08800
C1689       C  0.76878686  0.00950977  0.77340836    -0.13300
C1690       C  0.76759422  0.01397509  0.74993079    -0.13300
C1691       C  0.74719091  0.99022288  0.73640411     0.08800
C1692       C  0.71320798  0.46454620  0.75133293    -0.13300
H1693       H  0.69289572  0.44501036  0.78278065     0.12800
H1694       H  0.78430008  0.02843540  0.78345799     0.12800
H1695       H  0.78252928  0.03600500  0.74239907     0.12800
H1696       H  0.69318568  0.44955456  0.74180074     0.12800
C1697       C  0.96397052  0.25653788  0.76556284    -0.13300
C1698       C  0.98180794  0.28378699  0.77786920     0.08800
C1699       C  0.53419830  0.25119937  0.77686748    -0.13300
C1700       C  0.53622441  0.25410106  0.75336780    -0.13300
C1701       C  0.99352308  0.27575681  0.73072396     0.08800
C1702       C  0.96985601  0.25249080  0.74231569    -0.13300
H1703       H  0.94568121  0.23810094  0.77393638     0.12800
H1704       H  0.55046150  0.26913003  0.78716204     0.12800
H1705       H  0.55411516  0.27407545  0.74610559     0.12800
H1706       H  0.95565311  0.23123259  0.73339452     0.12800
C1707       C  0.91050596  0.43989648  0.82304097    -0.13300
C1708       C  0.43801288  0.38289293  0.85501002     0.08800
C1709       C  0.43225675  0.36433414  0.87521427    -0.13300
C1710       C  0.43241642  0.32655913  0.87527016    -0.13300
C1711       C  0.90432476  0.38230389  0.84176257     0.08800
C1712       C  0.90667051  0.40241046  0.82186970    -0.13300
H1713       H  0.91794007  0.45450910  0.80794554     0.12800
H1714       H  0.43333804  0.37865227  0.89114824     0.12800
H1715       H  0.43362495  0.31249841  0.89124373     0.12800
H1716       H  0.91175348  0.38886646  0.80596104     0.12800
C1717       C  0.04898410  0.15205820  0.82969953    -0.13300
C1718       C  0.57167051  0.05241291  0.85700379     0.08800
C1719       C  0.57134129  0.07137845  0.87748201    -0.13300
C1720       C  0.56892492  0.10905129  0.87745900    -0.13300
C1721       C  0.03573810  0.20538547  0.85194179     0.08800
C1722       C  0.04502482  0.18954558  0.83125710    -0.13300
H1723       H  0.05011227  0.13960581  0.81316980     0.12800
H1724       H  0.56674273  0.05710768  0.89313371     0.12800
H1725       H  0.56299376  0.12303593  0.89310679     0.12800
H1726       H  0.04376048  0.20530158  0.81590506     0.12800
C1727       C  0.96831535  0.05187243  0.76106409    -0.13300
C1728       C  0.99116431  0.03215099  0.77558613     0.08800
C1729       C  0.52148432  0.45730224  0.77506704    -0.13300
C1730       C  0.51992479  0.45923657  0.75152959    -0.13300
C1731       C  0.99551203  0.02289348  0.72808695     0.08800
C1732       C  0.97053290  0.04740359  0.73769107    -0.13300
H1733       H  0.94836542  0.07066724  0.76776546     0.12800
H1734       H  0.53939007  0.43748360  0.78271790     0.12800
H1735       H  0.53675335  0.44092418  0.74174003     0.12800
H1736       H  0.95216633  0.06284853  0.72713662     0.12800
C1737       C  0.74843215  0.21284848  0.92269716    -0.13200
C1738       C  0.75097329  0.21069767  0.94305207    -0.14800
C1739       C  0.73260391  0.34280480  0.01341620    -0.16400
C1740       C  0.76144299  0.31987417  0.01345479    -0.31600
H1741       H  0.70550988  0.33134476  0.01346223     0.12600
H1742       H  0.78852040  0.33138114  0.01337976     0.13200
C1743       C  0.73207258  0.06989959  0.01155513    -0.16400
C1744       C  0.76087003  0.09237741  0.01017068    -0.31600
H1745       H  0.70507558  0.08170804  0.01291236     0.12600
H1746       H  0.78782926  0.08048206  0.00877845     0.13200
C1747       C  0.73367039  0.46280920  0.94590256    -0.13200
C1748       C  0.73340195  0.46666760  0.92574222    -0.14800
C1749       C  0.48954489  0.20935613  0.94462280    -0.13200
C1750       C  0.49160518  0.21059236  0.92433050    -0.14800
C1751       C  0.48883821  0.31988649  0.01544963    -0.16400
C1752       C  0.51792382  0.34216225  0.01464039    -0.31600
H1753       H  0.91655170  0.44127156  0.00183486     0.12600
H1754       H  0.54482068  0.33006268  0.01353237     0.13200
C1755       C  0.48689519  0.09213841  0.01158461    -0.16400
C1756       C  0.51586139  0.06939230  0.01213722    -0.31600
H1757       H  0.91540733  0.19009120  0.00618296     0.12600
H1758       H  0.54285961  0.08104977  0.01262629     0.13200
C1759       C  0.50717729  0.46250476  0.92692191    -0.13200
C1760       C  0.50888393  0.46018572  0.94724952    -0.14800
C1761       C  0.76514545  0.27144397  0.57872058    -0.13200
C1762       C  0.76355653  0.27032995  0.59911961    -0.14800
C1763       C  0.74103569  0.00141288  0.59801506    -0.13200
C1764       C  0.74036707  0.99867564  0.57768348    -0.14800
C1765       C  0.90514792  0.24341432  0.50686600    -0.16400
C1766       C  0.87899505  0.26915900  0.50746115    -0.31600
H1767       H  0.89683059  0.21526544  0.50747300     0.12600
H1768       H  0.88719122  0.29730404  0.50637908     0.13200
C1769       C  0.63027795  0.21963918  0.51483681    -0.16400
C1770       C  0.65263267  0.24829582  0.51254802    -0.31600
H1771       H  0.64185608  0.19274211  0.51686498     0.12600
H1772       H  0.64024710  0.27482968  0.51035145     0.13200
C1773       C  0.01904909  0.25765081  0.57205100    -0.13200
C1774       C  0.01625634  0.26065863  0.59237074    -0.14800
C1775       C  0.85154576  0.97627964  0.50778322    -0.16400
C1776       C  0.87290902  0.00601124  0.50587418    -0.31600
H1777       H  0.86730407  0.44774667  0.51128716     0.12600
H1778       H  0.86025326  0.03263875  0.50548358     0.13200
C1779       C  0.60048846  0.95250002  0.51446283    -0.16400
C1780       C  0.62419473  0.97978186  0.51068798    -0.31600
H1781       H  0.61267365  0.42409410  0.52177857     0.12600
H1782       H  0.61325535  0.00648143  0.50695344     0.13200
C1783       C  0.99454916  0.99294764  0.59027615    -0.13200
C1784       C  0.99307452  0.99122396  0.56991297    -0.14800
C1785       C  0.75728167  0.21534366  0.42413344    -0.13200
C1786       C  0.76101146  0.22628483  0.44333180    -0.14800
C1787       C  0.73595305  0.44388514  0.42660146    -0.13200
C1788       C  0.73706846  0.45109235  0.44647255    -0.14800
C1789       C  0.00713337  0.27166127  0.41371794    -0.13200
C1790       C  0.01053177  0.26549315  0.43373065    -0.14800
C1791       C  0.83060207  0.28944325  0.35751353    -0.13300
C1792       C  0.81991156  0.26281532  0.34205223     0.08800
C1793       C  0.84325728  0.25228312  0.32463532    -0.13300
C1794       C  0.87880580  0.26425233  0.32454705    -0.13300
C1795       C  0.89109923  0.28703675  0.34178881     0.08800
C1796       C  0.86640159  0.30181525  0.35729934    -0.13300
H1797       H  0.81278267  0.29738290  0.37119124     0.12800
H1798       H  0.83520504  0.23162118  0.31265306     0.12800
H1799       H  0.89747034  0.25335111  0.31211929     0.12800
H1800       H  0.87560829  0.31978238  0.37054205     0.12800
C1801       C  0.61428535  0.09402608  0.34798528    -0.13300
C1802       C  0.59366119  0.10519132  0.36661454     0.08800
C1803       C  0.61077216  0.10662347  0.38772792    -0.13300
C1804       C  0.64847003  0.11032151  0.38866648    -0.13300
C1805       C  0.66851909  0.10974713  0.36864139     0.08800
C1806       C  0.65206468  0.09695680  0.34889003    -0.13300
H1807       H  0.60151973  0.09158099  0.33160983     0.12800
H1808       H  0.59517634  0.11399735  0.40253383     0.12800
H1809       H  0.66080042  0.11979478  0.40415459     0.12800
H1810       H  0.66725617  0.09598041  0.33327569     0.12800
C1811       C  0.98133290  0.52351140  0.43662121    -0.13200
C1812       C  0.97840554  0.53242059  0.41701506    -0.14800
C1813       C  0.81238426  0.53275381  0.37833403    -0.11700
C1814       C  0.79455896  0.52431841  0.35818485     0.08800
C1815       C  0.80151537  0.02315203  0.32773370    -0.13300
C1816       C  0.83525935  0.03969164  0.32673995    -0.13300
C1817       C  0.85835796  0.56362066  0.35702355     0.08800
C1818       C  0.84423519  0.55277628  0.37777844    -0.13300
H1819       H  0.80415515  0.52026672  0.39399896     0.12800
H1820       H  0.79063422  0.01055296  0.31268688     0.12800
H1821       H  0.84990396  0.03967232  0.31091475     0.12800
H1822       H  0.86046584  0.55490255  0.39295159     0.12800
C1823       C  0.60700930  0.82803594  0.34328429    -0.13300
C1824       C  0.59911634  0.34037312  0.36657658     0.08800
C1825       C  0.62023071  0.33933402  0.38619483    -0.13300
C1826       C  0.65804388  0.33861745  0.38443764    -0.13300
C1827       C  0.67410217  0.34096559  0.36308231     0.08800
C1828       C  0.64489298  0.82605316  0.34268977    -0.13300
H1829       H  0.59226030  0.82896427  0.32749633     0.12800
H1830       H  0.60809708  0.34575469  0.40234587     0.12800
H1831       H  0.67385693  0.34483815  0.39934009     0.12800
H1832       H  0.65814212  0.82605315  0.32640276     0.12800
C1833       C  0.76192990  0.20097619  0.08149620    -0.13200
C1834       C  0.76037792  0.19854220  0.10192205    -0.14800
C1835       C  0.77155106  0.16816204  0.25266138    -0.13300
C1836       C  0.74063774  0.17855645  0.24029963     0.08800
C1837       C  0.70813849  0.18539482  0.25198864    -0.13300
C1838       C  0.70708621  0.18358095  0.27563936    -0.13300
C1839       C  0.73818582  0.17366127  0.28808345     0.08800
C1840       C  0.77020777  0.16519662  0.27622659    -0.13300
H1841       H  0.79688529  0.16249680  0.24404652     0.12800
H1842       H  0.68393464  0.19350536  0.24288655     0.12800
H1843       H  0.68204479  0.19046963  0.28424005     0.12800
H1844       H  0.79472931  0.15787392  0.28525313     0.12800
C1845       C  0.74172903  0.95007601  0.09991840    -0.13200
C1846       C  0.74106653  0.95267588  0.07959460    -0.14800
C1847       C  0.67771178  0.33585310  0.18984716    -0.13300
C1848       C  0.67987779  0.35381984  0.16917029     0.08800
C1849       C  0.67780960  0.33399038  0.14906862    -0.13300
C1850       C  0.67981517  0.29629050  0.14968535    -0.13300
C1851       C  0.68423047  0.27876040  0.17038966     0.08800
C1852       C  0.68022582  0.29825269  0.19046923    -0.13300
H1853       H  0.67992000  0.35088208  0.20548467     0.12800
H1854       H  0.68018795  0.34756955  0.13299297     0.12800
H1855       H  0.68338010  0.28147163  0.13406269     0.12800
H1856       H  0.68402058  0.28496587  0.20655123     0.12800
C1857       C  0.80799181  0.04466445  0.19426928    -0.13300
C1858       C  0.80649027  0.02526319  0.17402350     0.08800
C1859       C  0.81519793  0.04237643  0.15373690    -0.13300
C1860       C  0.81867617  0.07992167  0.15322567    -0.13300
C1861       C  0.81351909  0.09997469  0.17301252     0.08800
C1862       C  0.81207755  0.08213106  0.19377971    -0.13300
H1863       H  0.80095587  0.03172161  0.21001284     0.12800
H1864       H  0.81374771  0.02763054  0.13796403     0.12800
H1865       H  0.81941644  0.09344705  0.13706495     0.12800
H1866       H  0.80766680  0.09740135  0.20916118     0.12800
C1867       C  0.75983666  0.90803261  0.25027723    -0.13300
C1868       C  0.73265117  0.92598409  0.23784726     0.08800
C1869       C  0.71263830  0.44753341  0.25282615    -0.13300
C1870       C  0.71101963  0.44524585  0.27626745    -0.13300
C1871       C  0.73926177  0.42880898  0.28855565     0.08800
C1872       C  0.75713912  0.90492370  0.27379412    -0.13300
H1873       H  0.78355305  0.89698760  0.24188840     0.12800
H1874       H  0.69035899  0.46053300  0.24402476     0.12800
H1875       H  0.68762103  0.45671923  0.28478458     0.12800
H1876       H  0.77899298  0.89178094  0.28290884     0.12800
C1877       C  0.49476360  0.20007286  0.08205943    -0.13200
C1878       C  0.49816942  0.19744927  0.10225881    -0.14800
C1879       C  0.00595026  0.29446205  0.23947889    -0.13300
C1880       C  0.98223065  0.32086547  0.23073285     0.08800
C1881       C  0.55847747  0.18508760  0.25012089    -0.13300
C1882       C  0.56137686  0.18575353  0.27372636    -0.13300
C1883       C  0.99433724  0.31542822  0.27772862     0.08800
C1884       C  0.01164684  0.29158439  0.26266140    -0.13300
H1885       H  0.01947771  0.27530865  0.22842925     0.12800
H1886       H  0.58296390  0.18539768  0.24003234     0.12800
H1887       H  0.58805110  0.18634656  0.28141096     0.12800
H1888       H  0.02934149  0.27029096  0.26885993     0.12800
C1889       C  0.52002719  0.45328487  0.08507182    -0.13200
C1890       C  0.52063303  0.45130888  0.10543811    -0.14800
C1891       C  0.58604380  0.33234245  0.14791717    -0.13300
C1892       C  0.58616432  0.35099950  0.16848705     0.08800
C1893       C  0.02955250  0.46754257  0.18287248    -0.13300
C1894       C  0.03088277  0.42987253  0.18149858    -0.13300
C1895       C  0.58112169  0.27605797  0.16818309     0.08800
C1896       C  0.58352335  0.29470742  0.14776045    -0.13300
H1897       H  0.58203528  0.34691628  0.13229240     0.12800
H1898       H  0.02607925  0.48023013  0.19921018     0.12800
H1899       H  0.02835752  0.41429393  0.19685350     0.12800
H1900       H  0.57783379  0.28097783  0.13201204     0.12800
C1901       C  0.88957239  0.17909649  0.14682303    -0.13300
C1902       C  0.44272052  0.03025852  0.17434393     0.08800
C1903       C  0.44132122  0.04981529  0.19456013    -0.13300
C1904       C  0.44139363  0.08753471  0.19402212    -0.13300
C1905       C  0.44321359  0.10531004  0.17327137     0.08800
C1906       C  0.88980418  0.21685603  0.14731022    -0.13300
H1907       H  0.88793621  0.16537153  0.13070975     0.12800
H1908       H  0.44613116  0.03627309  0.21045813     0.12800
H1909       H  0.44620836  0.10229468  0.20952580     0.12800
H1910       H  0.88826860  0.23151014  0.13155413     0.12800
C1911       C  0.53838341  0.95047570  0.25332079    -0.13300
C1912       C  0.95371020  0.57732192  0.23331550     0.08800
C1913       C  0.93476135  0.55017121  0.24484236    -0.13300
C1914       C  0.93591488  0.54824208  0.26837388    -0.13300
C1915       C  0.95540241  0.57382027  0.28108966     0.08800
C1916       C  0.54095377  0.94497031  0.27659258    -0.13300
H1917       H  0.55538401  0.97084553  0.24566793     0.12800
H1918       H  0.92010534  0.52953839  0.23563572     0.12800
H1919       H  0.92203327  0.52619989  0.27665365     0.12800
H1920       H  0.55956089  0.96158743  0.28618208     0.12800
O1921       O  0.94119046  0.05003991  0.19320074    -0.72900
O1922       O  0.94014974  0.05738082  0.12572749    -0.73900
O1923       O  0.97424726  0.01208977  0.15716481    -0.62500
O1924       O  0.90016891  0.59966671  0.16212110    -0.70900
O1925       O  0.51177517  0.49943895  0.17848189    -0.70500
O1926       O  0.56975896  0.92010864  0.16980413    -0.61700
O1927       O  0.54506108  0.46356657  0.14136920    -0.74200
O1928       O  0.54654560  0.45078376  0.20888045    -0.73000
Cu1929     Cu  0.93889750  0.05264148  0.15943129     1.04600
Cu1930     Cu  0.54733380  0.45861109  0.17527605     1.04300
C1931       C  0.96477472  0.06718147  0.20483673     0.93300
C1932       C  0.52071114  0.44768459  0.12966876     0.92400
C1933       C  0.55579179  0.88876479  0.16809982     0.84600
C1934       C  0.47733426  0.49534462  0.17790494     0.90800
O1935       O  0.50051925  0.63283593  0.17103269    -0.72900
O1936       O  0.56538019  0.71798865  0.16867484    -0.73900
O1937       O  0.53899678  0.67341460  0.20369158    -0.62500
O1938       O  0.52610918  0.67808248  0.13617965    -0.70900
O1939       O  0.92548939  0.84284115  0.12834100    -0.70500
O1940       O  0.94096766  0.84242030  0.19597888    -0.61700
O1941       O  0.96843761  0.88300512  0.15935879    -0.74200
O1942       O  0.89764273  0.80206520  0.16492405    -0.73000
Cu1943     Cu  0.53439283  0.67422292  0.16971256     1.04600
Cu1944     Cu  0.93155083  0.84409140  0.16230119     1.04300
C1945       C  0.46620250  0.63581928  0.17345912     0.93300
C1946       C  0.55061913  0.74894196  0.17113918     0.92400
C1947       C  0.96652563  0.82305679  0.20439936     0.84600
C1948       C  0.49997493  0.69681501  0.12799114     0.90800
O1949       O  0.80252125  0.46611468  0.17244852    -0.72900
O1950       O  0.72963121  0.87961903  0.16432505    -0.73900
O1951       O  0.76823855  0.42880309  0.13674890    -0.62500
O1952       O  0.76861528  0.42035725  0.20461359    -0.70900
O1953       O  0.71994815  0.45593265  0.20596620    -0.70500
O1954       O  0.71953663  0.46452286  0.13871988    -0.61700
O1955       O  0.68078459  0.91532739  0.16574801    -0.74200
O1956       O  0.75383895  0.50199955  0.17433996    -0.73000
Cu1957     Cu  0.77036995  0.42320114  0.17053169     1.04600
Cu1958     Cu  0.71825711  0.46151024  0.17243756     1.04300
C1959       C  0.78828457  0.49749072  0.17373389     0.93300
C1960       C  0.69523743  0.88398497  0.16427066     0.92400
C1961       C  0.74370348  0.44796344  0.12718577     0.84600
C1962       C  0.74391425  0.43668272  0.21600174     0.90800
O1963       O  0.71554830  0.66643862  0.20069311    -0.72900
O1964       O  0.73220923  0.67793953  0.13355077    -0.73900
O1965       O  0.75881349  0.63149081  0.16746528    -0.62500
O1966       O  0.68843256  0.71323229  0.16613550    -0.70900
O1967       O  0.73478834  0.74954856  0.17396205    -0.70500
O1968       O  0.80580469  0.66772906  0.17377139    -0.61700
O1969       O  0.77796697  0.71534428  0.14030413    -0.74200
O1970       O  0.76319917  0.70138383  0.20727896    -0.73000
Cu1971     Cu  0.72217909  0.67091729  0.16675465     1.04600
Cu1972     Cu  0.77192959  0.70999485  0.17410153     1.04300
C1973       C  0.73749843  0.68141484  0.21457627     0.93300
C1974       C  0.75758420  0.69840567  0.12642603     0.92400
C1975       C  0.79273158  0.63631386  0.17063555     0.84600
C1976       C  0.70114839  0.74469271  0.16964913     0.90800
O1977       O  0.97523823  0.57425375  0.38661916    -0.72900
O1978       O  0.96490431  0.59532394  0.31921579    -0.73900
O1979       O  0.91644802  0.59090646  0.35671774    -0.62500
O1980       O  0.57858131  0.40041246  0.36517286    -0.70900
O1981       O  0.52796469  0.85692226  0.36014440    -0.70500
O1982       O  0.90716367  0.01865150  0.34410540    -0.61700
O1983       O  0.95895846  0.02283154  0.30991368    -0.74200
O1984       O  0.96267792  0.00477867  0.37626000    -0.73000
Cu1985     Cu  0.97026726  0.58754143  0.35322502     1.04600
Cu1986     Cu  0.96051696  0.01223166  0.34282972     1.04300
C1987       C  0.96590780  0.03118708  0.38997108     0.93300
C1988       C  0.96084144  0.05485805  0.30200958     0.92400
C1989       C  0.89180590  0.04935549  0.34711401     0.84600
C1990       C  0.56130471  0.86545500  0.36183299     0.90800
O1991       O  0.98352075  0.81352566  0.38232339    -0.72900
O1992       O  0.97952789  0.83549448  0.31519460    -0.73900
O1993       O  0.92734403  0.82072718  0.34877619    -0.62500
O1994       O  0.57295783  0.66096476  0.36130504    -0.70900
O1995       O  0.52338953  0.62684336  0.36133532    -0.70500
O1996       O  0.93412093  0.76271389  0.33957988    -0.61700
O1997       O  0.98858277  0.77710763  0.30815941    -0.74200
O1998       O  0.98726202  0.75481297  0.37455141    -0.73000
Cu1999     Cu  0.98138602  0.82690088  0.34902723     1.04600
Cu2000     Cu  0.98787465  0.76422316  0.34099100     1.04300
C2001       C  0.98633962  0.78062628  0.38890608     0.93300
C2002       C  0.98345730  0.80940156  0.30112895     0.92400
C2003       C  0.91386123  0.79037112  0.34297033     0.84600
C2004       C  0.55776966  0.63004164  0.36268923     0.90800
O2005       O  0.75061558  0.90398705  0.32201574    -0.72900
O2006       O  0.75231975  0.91574636  0.38983084    -0.73900
O2007       O  0.72303900  0.86302644  0.35927779    -0.62500
O2008       O  0.77881983  0.95499365  0.35278457    -0.70900
O2009       O  0.73827162  0.49434158  0.35608245    -0.70500
O2010       O  0.68275821  0.40293050  0.35866638    -0.61700
O2011       O  0.70964683  0.45241492  0.39103399    -0.74200
O2012       O  0.71197371  0.44521949  0.32360736    -0.73000
Cu2013     Cu  0.75298389  0.90817586  0.35603912     1.04600
Cu2014     Cu  0.70882460  0.44958884  0.35721921     1.04300
C2015       C  0.72572621  0.91976304  0.31052772     0.93300
C2016       C  0.72805505  0.93530115  0.39942548     0.92400
C2017       C  0.68855651  0.86622044  0.35949681     0.84600
C2018       C  0.76278009  0.98562593  0.35104743     0.90800
O2019       O  0.74213472  0.74444841  0.34668351    -0.72900
O2020       O  0.67276653  0.66458166  0.36099901    -0.73900
O2021       O  0.71087188  0.71779150  0.38690811    -0.62500
O2022       O  0.70347846  0.69282404  0.32076531    -0.70900
O2023       O  0.74944926  0.65407979  0.32405959    -0.70500
O2024       O  0.75517370  0.67733940  0.39108191    -0.61700
O2025       O  0.71757939  0.62425026  0.36403244    -0.74200
O2026       O  0.78633660  0.70369606  0.35094251    -0.73000
Cu2027     Cu  0.70549091  0.70607163  0.35381548     1.04600
Cu2028     Cu  0.75358717  0.66334380  0.35777081     1.04300
C2029       C  0.77568982  0.73568897  0.34624658     0.93300
C2030       C  0.68389066  0.63211192  0.36422544     0.92400
C2031       C  0.73483642  0.70243634  0.39922123     0.84600
C2032       C  0.72646144  0.67114108  0.31174060     0.90800
O2033       O  0.98011315  0.97834205  0.46535469    -0.72900
O2034       O  0.98833835  0.96562113  0.53332553    -0.73900
O2035       O  0.92961499  0.97347849  0.50190362    -0.62500
O2036       O  0.53805765  0.93222811  0.51701321    -0.70900
O2037       O  0.54994721  0.48918671  0.51283277    -0.70500
O2038       O  0.93487561  0.53198039  0.50953766    -0.61700
O2039       O  0.99392459  0.52218936  0.54057418    -0.74200
O2040       O  0.98772046  0.54114057  0.47434240    -0.73000
Cu2041     Cu  0.98437454  0.96937408  0.49916618     1.04600
Cu2042     Cu  0.99097620  0.53297314  0.50765852     1.04300
C2043       C  0.98062039  0.01041020  0.45718873     0.93300
C2044       C  0.99350614  0.49005939  0.54829127     0.92400
C2045       C  0.91364195  0.00404208  0.50440016     0.84600
C2046       C  0.56008156  0.95841741  0.51334959     0.90800
O2047       O  0.55412442  0.69067343  0.51803028    -0.72900
O2048       O  0.95082593  0.71771992  0.50127931    -0.73900
O2049       O  0.00150653  0.72934927  0.46527072    -0.62500
O2050       O  0.00809719  0.71861750  0.53367830    -0.70900
O2051       O  0.00262961  0.77827364  0.53689613    -0.70500
O2052       O  0.99695805  0.78886560  0.46964097    -0.61700
O2053       O  0.94384447  0.77703287  0.50481780    -0.74200
O2054       O  0.55884645  0.74975828  0.51265622    -0.73000
Cu2055     Cu  0.00544347  0.72144236  0.49933331     1.04600
Cu2056     Cu  0.00001142  0.78499570  0.50341525     1.04300
C2057       C  0.57400997  0.71878992  0.51566533     0.93300
C2058       C  0.92990799  0.74513777  0.50374506     0.92400
C2059       C  0.99759494  0.76106609  0.45685402     0.84600
C2060       C  0.00545951  0.74712768  0.54593399     0.90800
O2061       O  0.73602899  0.93508898  0.48097706    -0.72900
O2062       O  0.73905729  0.95855586  0.54705136    -0.73900
O2063       O  0.68169718  0.94714696  0.51481946    -0.62500
O2064       O  0.79335827  0.94793232  0.51281696    -0.70900
O2065       O  0.79582192  0.50459270  0.50933476    -0.70500
O2066       O  0.68550590  0.50394743  0.51093067    -0.61700
O2067       O  0.74163067  0.51465025  0.54370636    -0.74200
O2068       O  0.73925640  0.49253393  0.47677674    -0.73000
Cu2069     Cu  0.73763922  0.94515856  0.51421641     1.04600
Cu2070     Cu  0.74051022  0.50594329  0.50994507     1.04300
C2071       C  0.73548296  0.96054366  0.46652302     0.93300
C2072       C  0.74191527  0.48824822  0.55759581     0.92400
C2073       C  0.66729550  0.47521054  0.51477780     0.84600
C2074       C  0.81346164  0.47505071  0.51230986     0.90800
O2075       O  0.74520391  0.76706567  0.47228179    -0.72900
O2076       O  0.74881558  0.78702264  0.54025647    -0.73900
O2077       O  0.80178916  0.78387259  0.50455950    -0.62500
O2078       O  0.69309679  0.77346304  0.50784947    -0.70900
O2079       O  0.69717796  0.71458616  0.51441630    -0.70500
O2080       O  0.80981764  0.72524163  0.51052486    -0.61700
O2081       O  0.75536267  0.72796161  0.54580209    -0.74200
O2082       O  0.75125509  0.70842191  0.47941896    -0.73000
Cu2083     Cu  0.74713111  0.77982957  0.50599831     1.04600
Cu2084     Cu  0.75375873  0.71699957  0.51275496     1.04300
C2085       C  0.74693833  0.73411932  0.46539460     0.93300
C2086       C  0.75205840  0.75996756  0.55361519     0.92400
C2087       C  0.82323804  0.75688635  0.50701967     0.84600
C2088       C  0.67764460  0.74326308  0.51165125     0.90800
O2089       O  0.54276037  0.95531446  0.04652313    -0.72900
O2090       O  0.54261288  0.95522976  0.97823907    -0.73900
O2091       O  0.54475205  0.51123806  0.01599513    -0.62500
O2092       O  0.54283257  0.90026296  0.01244466    -0.70900
O2093       O  0.93940173  0.00972258  0.00304311    -0.70500
O2094       O  0.93939363  0.62156032  0.00363483    -0.61700
O2095       O  0.93824849  0.06411139  0.96844256    -0.74200
O2096       O  0.93836904  0.06749196  0.03628682    -0.73000
Cu2097     Cu  0.54483398  0.95528653  0.01239125     1.04600
Cu2098     Cu  0.93651169  0.06578107  0.00241629     1.04300
C2099       C  0.51259227  0.95556286  0.05716960     0.93300
C2100       C  0.51235621  0.95540324  0.96765623     0.92400
C2101       C  0.51493254  0.52919272  0.01678713     0.84600
C2102       C  0.51308523  0.88253199  0.01279785     0.90800
O2103       O  0.52094697  0.70555741  0.04849680    -0.72900
O2104       O  0.51822245  0.70611204  0.98098373    -0.73900
O2105       O  0.51870111  0.76182830  0.01475335    -0.62500
O2106       O  0.51931912  0.64990228  0.01483310    -0.70900
O2107       O  0.91627288  0.76100380  0.00223645    -0.70500
O2108       O  0.91678217  0.87089840  0.99999242    -0.61700
O2109       O  0.92189347  0.81349240  0.96702443    -0.74200
O2110       O  0.91257171  0.81836413  0.03515832    -0.73000
Cu2111     Cu  0.52140127  0.70585678  0.01473049     1.04600
Cu2112     Cu  0.91486780  0.81597598  0.00098248     1.04300
C2113       C  0.49138933  0.70474205  0.05964896     0.93300
C2114       C  0.48782532  0.70688287  0.97068229     0.92400
C2115       C  0.48821419  0.77893908  0.01517876     0.84600
C2116       C  0.48901505  0.63285150  0.01536117     0.90800
O2117       O  0.76916795  0.95592433  0.04408055    -0.72900
O2118       O  0.76531059  0.95742432  0.97619782    -0.73900
O2119       O  0.76804949  0.51201578  0.01421288    -0.62500
O2120       O  0.76813127  0.90060841  0.00990183    -0.70900
O2121       O  0.70801154  0.90068261  0.01069427    -0.70500
O2122       O  0.70796685  0.51239362  0.01575965    -0.61700
O2123       O  0.70505445  0.95702160  0.97727161    -0.74200
O2124       O  0.70893590  0.95459402  0.04530371    -0.73000
Cu2125     Cu  0.76918039  0.95665603  0.01010508     1.04600
Cu2126     Cu  0.70488411  0.95572654  0.01134401     1.04300
C2127       C  0.73966351  0.95465345  0.05532343     0.93300
C2128       C  0.73467712  0.95799215  0.96610243     0.92400
C2129       C  0.73793140  0.52975161  0.01498032     0.84600
C2130       C  0.73808673  0.88311277  0.01043927     0.90800
O2131       O  0.79218253  0.70693259  0.97826353    -0.72900
O2132       O  0.79514346  0.70555279  0.04668437    -0.73900
O2133       O  0.79374306  0.65094705  0.01214187    -0.62500
O2134       O  0.79416520  0.76134863  0.01275746    -0.70900
O2135       O  0.73404969  0.76259163  0.01328924    -0.70500
O2136       O  0.73365772  0.65066674  0.01334024    -0.61700
O2137       O  0.73489294  0.70650971  0.04730342    -0.74200
O2138       O  0.73194937  0.70698962  0.97933084    -0.73000
Cu2139     Cu  0.79584323  0.70614769  0.01243184     1.04600
Cu2140     Cu  0.73155456  0.70668621  0.01336025     1.04300
C2141       C  0.76151894  0.70759101  0.96811899     0.93300
C2142       C  0.76527586  0.70570242  0.05767524     0.92400
C2143       C  0.76396245  0.63324986  0.01284320     0.84600
C2144       C  0.76442783  0.77950527  0.01284245     0.90800
O2145       O  0.56123737  0.49581712  0.85803528    -0.72900
O2146       O  0.49218143  0.90645747  0.85120356    -0.73900
O2147       O  0.52432135  0.95179970  0.81840847    -0.62500
O2148       O  0.53065577  0.94271168  0.88617050    -0.70900
O2149       O  0.94872631  0.06547734  0.87595897    -0.70500
O2150       O  0.96165094  0.05561476  0.80858782    -0.61700
O2151       O  0.92079015  0.01862988  0.84159906    -0.74200
O2152       O  0.99120915  0.60252482  0.84505820    -0.73000
Cu2153     Cu  0.52909620  0.94596783  0.85210911     1.04600
Cu2154     Cu  0.95333823  0.06171859  0.84200301     1.04300
C2155       C  0.54673801  0.52702223  0.86008794     0.93300
C2156       C  0.45796795  0.91190413  0.85296954     0.92400
C2157       C  0.98737338  0.03608758  0.80048854     0.84600
C2158       C  0.50805734  0.95996261  0.89859567     0.90800
O2159       O  0.48435150  0.77873241  0.85982557    -0.72900
O2160       O  0.55606194  0.69793922  0.85924994    -0.73900
O2161       O  0.52305166  0.74202738  0.82544691    -0.62500
O2162       O  0.51616892  0.73445634  0.89332972    -0.70900
O2163       O  0.94544997  0.77926628  0.87920505    -0.70500
O2164       O  0.95558284  0.76845567  0.81184736    -0.61700
O2165       O  0.98489519  0.73239513  0.84979881    -0.74200
O2166       O  0.91636170  0.81581381  0.84153568    -0.73000
Cu2167     Cu  0.52147217  0.73972331  0.85958574     1.04600
Cu2168     Cu  0.94898746  0.77257748  0.84556558     1.04300
C2169       C  0.93060795  0.84714421  0.84072814     0.93300
C2170       C  0.01922593  0.73703554  0.85093994     0.92400
C2171       C  0.98119905  0.78432017  0.80125247     0.84600
C2172       C  0.49163804  0.71456174  0.90205586     0.90800
O2173       O  0.80118556  0.94827094  0.85505471    -0.72900
O2174       O  0.72653225  0.53447817  0.85923448    -0.73900
O2175       O  0.75842965  0.48939896  0.89235267    -0.62500
O2176       O  0.76165552  0.49542059  0.82461952    -0.70900
O2177       O  0.71376145  0.45946743  0.82253039    -0.70500
O2178       O  0.70971872  0.45432583  0.88996598    -0.61700
O2179       O  0.67761396  0.49967751  0.85645761    -0.74200
O2180       O  0.75342905  0.91217734  0.85122052    -0.73000
Cu2181     Cu  0.76184960  0.49385231  0.85862472     1.04600
Cu2182     Cu  0.71011879  0.45574721  0.85617483     1.04300
C2183       C  0.78766229  0.91673749  0.85320498     0.93300
C2184       C  0.69217898  0.53084560  0.85766789     0.92400
C2185       C  0.73375143  0.47049321  0.90169318     0.84600
C2186       C  0.73805715  0.47845981  0.81284803     0.90800
O2187       O  0.73169954  0.73624468  0.89025481    -0.72900
O2188       O  0.72764526  0.74638042  0.82207419    -0.73900
O2189       O  0.69380333  0.70102443  0.85485690    -0.62500
O2190       O  0.76387283  0.78191587  0.85779248    -0.70900
O2191       O  0.81183757  0.74553304  0.85401600    -0.70500
O2192       O  0.74081714  0.66329652  0.85154194    -0.61700
O2193       O  0.77434771  0.70859068  0.81902489    -0.74200
O2194       O  0.77906183  0.69918268  0.88674251    -0.73000
Cu2195     Cu  0.72769474  0.74273797  0.85635166     1.04600
Cu2196     Cu  0.77810693  0.70268167  0.85272876     1.04300
C2197       C  0.75620513  0.71611605  0.89912853     0.93300
C2198       C  0.75067831  0.72923215  0.80978002     0.92400
C2199       C  0.70659165  0.66911423  0.85293524     0.84600
C2200       C  0.79808815  0.77715946  0.85615605     0.90800
O2201       O  0.01441388  0.97687270  0.62676057    -0.72900
O2202       O  0.01555909  0.99188592  0.69449292    -0.73900
O2203       O  0.97429852  0.94937095  0.66365666    -0.62500
O2204       O  0.54763239  0.99735584  0.66672790    -0.70900
O2205       O  0.51306211  0.54707671  0.67167263    -0.70500
O2206       O  0.93223169  0.49306005  0.65982765    -0.61700
O2207       O  0.97178913  0.53376173  0.69234967    -0.74200
O2208       O  0.97707735  0.51896910  0.62497873    -0.73000
Cu2209     Cu  0.01647355  0.98266285  0.66073537     1.04600
Cu2210     Cu  0.97318885  0.52808876  0.65842438     1.04300
C2211       C  0.99519956  0.49232686  0.61690695     0.93300
C2212       C  0.98943124  0.51263788  0.70552472     0.92400
C2213       C  0.93654994  0.45909463  0.66297779     0.84600
C2214       C  0.54497603  0.53387723  0.67041850     0.90800
O2215       O  0.97383719  0.81638282  0.65672054    -0.72900
O2216       O  0.56257419  0.72745470  0.67027247    -0.73900
O2217       O  0.01664946  0.77625180  0.62463365    -0.62500
O2218       O  0.01404178  0.78551558  0.69254320    -0.70900
O2219       O  0.97586513  0.73944105  0.69418534    -0.70500
O2220       O  0.98009125  0.72873850  0.62626427    -0.61700
O2221       O  0.52765152  0.67856387  0.66895389    -0.74200
O2222       O  0.93688486  0.76898088  0.65758548    -0.73000
Cu2223     Cu  0.01652824  0.78258750  0.65854208     1.04600
Cu2224     Cu  0.97651822  0.73240283  0.66027272     1.04300
C2225       C  0.94197858  0.80315182  0.65707969     0.93300
C2226       C  0.55895342  0.69315853  0.66914490     0.92400
C2227       C  0.99949685  0.75063208  0.61485076     0.84600
C2228       C  0.99408661  0.76427616  0.70410498     0.90800
O2229       O  0.77114748  0.94152344  0.66485637    -0.72900
O2230       O  0.68263734  0.00383847  0.66807271    -0.73900
O2231       O  0.72532696  0.97517404  0.63255242    -0.62500
O2232       O  0.72849173  0.97032852  0.69999151    -0.70900
O2233       O  0.75699283  0.51406923  0.70565698    -0.70500
O2234       O  0.75849497  0.51978578  0.63767568    -0.61700
O2235       O  0.71549867  0.55112984  0.67238264    -0.74200
O2236       O  0.79982083  0.48395324  0.67105028    -0.73000
Cu2237     Cu  0.72562764  0.97111690  0.66631334     1.04600
Cu2238     Cu  0.75902176  0.51885427  0.67179521     1.04300
C2239       C  0.79627692  0.44967851  0.66977895     0.93300
C2240       C  0.68418664  0.53692204  0.67117441     0.92400
C2241       C  0.74122128  0.49614257  0.62618531     0.84600
C2242       C  0.73889869  0.48907420  0.71534827     0.90800
O2243       O  0.81047411  0.76626526  0.66678716    -0.72900
O2244       O  0.73030714  0.69416545  0.66461055    -0.73900
O2245       O  0.76933876  0.73514847  0.63182738    -0.62500
O2246       O  0.77160521  0.72590607  0.69981668    -0.70900
O2247       O  0.73290318  0.77182790  0.70273888    -0.70500
O2248       O  0.73038881  0.78105183  0.63465706    -0.61700
O2249       O  0.69153039  0.74032277  0.66758354    -0.74200
O2250       O  0.77199488  0.81272283  0.66950244    -0.73000
Cu2251     Cu  0.77186723  0.72885332  0.66570769     1.04600
Cu2252     Cu  0.73023691  0.77801668  0.66878229     1.04300
C2253       C  0.80421624  0.80029157  0.66767233     0.93300
C2254       C  0.69796143  0.70636234  0.66596241     0.92400
C2255       C  0.74995756  0.75985361  0.62260788     0.84600
C2256       C  0.75223609  0.74710268  0.71205504     0.90800
C2257       C  0.88684717  0.82780273  0.63991643    -0.13300
C2258       C  0.90991970  0.82631072  0.65862211     0.08800
C2259       C  0.89546670  0.83147228  0.68025019    -0.13300
C2260       C  0.85796490  0.82994269  0.68345460    -0.13300
C2261       C  0.83518569  0.82425928  0.66492583     0.08800
C2262       C  0.84934288  0.82710798  0.64308983    -0.13300
H2263       H  0.89758830  0.82351304  0.62313285     0.12800
H2264       H  0.91302840  0.83007795  0.69487978     0.12800
H2265       H  0.84747788  0.82744964  0.70041445     0.12800
H2266       H  0.83202893  0.82246309  0.62861283     0.12800
C2267       C  0.61287557  0.66944048  0.68764153    -0.13300
C2268       C  0.59228544  0.67180070  0.66784133     0.08800
C2269       C  0.61007222  0.67148071  0.64697209    -0.13300
C2270       C  0.64751531  0.67698642  0.64609165    -0.13300
C2271       C  0.66702462  0.68189737  0.66610008     0.08800
C2272       C  0.65030935  0.67484652  0.68678983    -0.13300
H2273       H  0.59953028  0.66996413  0.70389709     0.12800
H2274       H  0.59452285  0.67359169  0.63152796     0.12800
H2275       H  0.66007407  0.68263916  0.62999836     0.12800
H2276       H  0.66506009  0.67882799  0.70238861     0.12800
C2277       C  0.84583397  0.42737914  0.64685754    -0.13300
C2278       C  0.82954637  0.42859706  0.66815431     0.08800
C2279       C  0.85549355  0.93593454  0.68532356    -0.13300
C2280       C  0.89328663  0.93697650  0.68451201    -0.13300
C2281       C  0.90422980  0.43679274  0.66437410     0.08800
C2282       C  0.88321645  0.43206690  0.64494984    -0.13300
H2283       H  0.82929234  0.42907307  0.63179107     0.12800
H2284       H  0.84204731  0.93983508  0.70138156     0.12800
H2285       H  0.90825999  0.94176805  0.69994025     0.12800
H2286       H  0.89486668  0.43666169  0.62846400     0.12800
C2287       C  0.59469094  0.56292269  0.69051778    -0.13300
C2288       C  0.57651087  0.55726701  0.67010406     0.08800
C2289       C  0.59543024  0.56007804  0.64976293    -0.13300
C2290       C  0.63319656  0.56123166  0.65001819    -0.13300
C2291       C  0.65164581  0.55926410  0.67060135     0.08800
C2292       C  0.63251994  0.56390078  0.69077304    -0.13300
H2293       H  0.58029589  0.56051450  0.70634472     0.12800
H2294       H  0.58163753  0.55545592  0.63389610     0.12800
H2295       H  0.64776751  0.55742345  0.63433140     0.12800
H2296       H  0.64654433  0.56214954  0.70678241     0.12800
C2297       C  0.72831185  0.75961288  0.77423080    -0.13300
C2298       C  0.75048096  0.73349119  0.78474423     0.08800
C2299       C  0.77321100  0.71190733  0.77107355    -0.13300
C2300       C  0.77379630  0.71634290  0.74760769    -0.13300
C2301       C  0.75183567  0.74265249  0.73708981     0.08800
C2302       C  0.72903620  0.76418261  0.75074969    -0.13300
H2303       H  0.71056171  0.77679811  0.78417722     0.12800
H2304       H  0.79064629  0.69147380  0.77851221     0.12800
H2305       H  0.79158526  0.69913823  0.73769840     0.12800
H2306       H  0.71162318  0.78460686  0.74328802     0.12800
C2307       C  0.82129278  0.83024727  0.87561742    -0.13300
C2308       C  0.82012544  0.80978072  0.85570727     0.08800
C2309       C  0.82183440  0.82758679  0.83491790    -0.13300
C2310       C  0.81641981  0.86498290  0.83399568    -0.13300
C2311       C  0.81077025  0.88457389  0.85391419     0.08800
C2312       C  0.81634963  0.86771401  0.87472816    -0.13300
H2313       H  0.81960360  0.81691073  0.89180807     0.12800
H2314       H  0.82060245  0.81218345  0.81937951     0.12800
H2315       H  0.81194684  0.87769369  0.81780073     0.12800
H2316       H  0.81176021  0.88253798  0.89024674     0.12800
C2317       C  0.67119729  0.58084481  0.83489987    -0.13300
C2318       C  0.67084759  0.56400709  0.85602572     0.08800
C2319       C  0.66833917  0.58535284  0.87551190    -0.13300
C2320       C  0.67421319  0.62255703  0.87413571    -0.13300
C2321       C  0.68241833  0.63806198  0.85327504     0.08800
C2322       C  0.67779945  0.61789847  0.83351624    -0.13300
H2323       H  0.67329221  0.56466949  0.81969551     0.12800
H2324       H  0.66821949  0.57271909  0.89195499     0.12800
H2325       H  0.67774778  0.63795394  0.88953175     0.12800
H2326       H  0.68411159  0.62964255  0.81729703     0.12800
C2327       C  0.72941515  0.95755610  0.77017946    -0.13300
C2328       C  0.73854198  0.48098513  0.78789086     0.08800
C2329       C  0.76411500  0.50275298  0.77684321    -0.13300
C2330       C  0.76409274  0.50555671  0.75333047    -0.13300
C2331       C  0.73866521  0.48646015  0.74029648     0.08800
C2332       C  0.72841929  0.96183893  0.74685932    -0.13300
H2333       H  0.71428638  0.93553582  0.77757792     0.12800
H2334       H  0.78411992  0.51776941  0.78636908     0.12800
H2335       H  0.78420037  0.52249266  0.74534161     0.12800
H2336       H  0.71260427  0.94288506  0.73701778     0.12800
C2337       C  0.96138396  0.75580428  0.76469935    -0.13300
C2338       C  0.98492747  0.77913334  0.77640416     0.08800
C2339       C  0.52505267  0.75136091  0.77730607    -0.13300
C2340       C  0.52545726  0.75377210  0.75371962    -0.13300
C2341       C  0.99154225  0.76886967  0.72904019     0.08800
C2342       C  0.96471393  0.75066888  0.74138849    -0.13300
H2343       H  0.94023815  0.74143167  0.77356072     0.12800
H2344       H  0.54250626  0.76902749  0.78700187     0.12800
H2345       H  0.54332821  0.77313267  0.74582490     0.12800
H2346       H  0.94590451  0.73269258  0.73298365     0.12800
C2347       C  0.91075050  0.93764207  0.82112076    -0.13300
C2348       C  0.43442158  0.88042837  0.85386546     0.08800
C2349       C  0.42898581  0.86438826  0.87491087    -0.13300
C2350       C  0.42536346  0.82692296  0.87637025    -0.13300
C2351       C  0.90853497  0.87988733  0.84001967     0.08800
C2352       C  0.90891419  0.89997319  0.82006596    -0.13300
H2353       H  0.91662471  0.95254833  0.80587205     0.12800
H2354       H  0.43323487  0.87984504  0.89021563     0.12800
H2355       H  0.42752073  0.81426930  0.89276193     0.12800
H2356       H  0.91372818  0.88659469  0.80407503     0.12800
C2357       C  0.05354104  0.65020635  0.83063308    -0.13300
C2358       C  0.56873681  0.55956584  0.86024013     0.08800
C2359       C  0.57041123  0.57942255  0.88032305    -0.13300
C2360       C  0.56996107  0.61711643  0.87956411    -0.13300
C2361       C  0.04228016  0.70492928  0.85197817     0.08800
C2362       C  0.05101177  0.68787160  0.83157200    -0.13300
H2363       H  0.05410362  0.63703191  0.81431117     0.12800
H2364       H  0.56628697  0.56611907  0.89634970     0.12800
H2365       H  0.56544772  0.63209569  0.89503813     0.12800
H2366       H  0.05008031  0.70294331  0.81594824     0.12800
C2367       C  0.96483029  0.55103646  0.76321991    -0.13300
C2368       C  0.98766138  0.53107851  0.77766981     0.08800
C2369       C  0.52019144  0.95348224  0.77051404    -0.13300
C2370       C  0.51759477  0.95552902  0.74700233    -0.13300
C2371       C  0.98855214  0.51877547  0.73035797     0.08800
C2372       C  0.96535556  0.54505984  0.73988561    -0.13300
H2373       H  0.94640777  0.57130255  0.76994802     0.12800
H2374       H  0.54023941  0.93542930  0.77780842     0.12800
H2375       H  0.53584858  0.93914885  0.73688040     0.12800
H2376       H  0.94742524  0.56096799  0.72930943     0.12800
C2377       C  0.75824760  0.71249149  0.92340847    -0.13200
C2378       C  0.76008568  0.70972775  0.94375562    -0.14800
C2379       C  0.73679804  0.84234687  0.01093765    -0.16400
C2380       C  0.76623790  0.82026594  0.01227801    -0.31600
H2381       H  0.71008060  0.83006396  0.01046641     0.12600
H2382       H  0.79300893  0.83243347  0.01277300     0.13200
C2383       C  0.73643699  0.57056985  0.01484456    -0.16400
C2384       C  0.76573446  0.59242615  0.01311220    -0.31600
H2385       H  0.70973030  0.58307576  0.01600385     0.12600
H2386       H  0.79246724  0.57997602  0.01196151     0.13200
C2387       C  0.73370378  0.96042471  0.94183690    -0.13200
C2388       C  0.73427944  0.96335365  0.92153112    -0.14800
C2389       C  0.48760223  0.70887463  0.94645728    -0.13200
C2390       C  0.48910469  0.71146048  0.92618573    -0.14800
C2391       C  0.48600295  0.81968118  0.01473147    -0.16400
C2392       C  0.51510711  0.84179039  0.01328926    -0.31600
H2393       H  0.91697200  0.94147056  0.99983511     0.12600
H2394       H  0.54199234  0.82957979  0.01258965     0.13200
C2395       C  0.48725871  0.59212818  0.01594290    -0.16400
C2396       C  0.51664694  0.56992904  0.01657800    -0.31600
H2397       H  0.91626124  0.69033272  0.00388215     0.12600
H2398       H  0.54345525  0.58203107  0.01658872     0.13200
C2399       C  0.51052085  0.95724196  0.92287154    -0.13200
C2400       C  0.51189833  0.95592608  0.94327117    -0.14800
C2401       C  0.75131917  0.76461017  0.57786558    -0.13200
C2402       C  0.75037736  0.76376750  0.59830808    -0.14800
C2403       C  0.74213768  0.49706402  0.60190024    -0.13200
C2404       C  0.74231873  0.49487989  0.58155644    -0.14800
C2405       C  0.88965128  0.73816480  0.50549538    -0.16400
C2406       C  0.86352680  0.76402044  0.50580625    -0.31600
H2407       H  0.88124453  0.71004657  0.50614604     0.12600
H2408       H  0.87185582  0.79211640  0.50462785     0.13200
C2409       C  0.61479455  0.71512300  0.51610378    -0.16400
C2410       C  0.63687782  0.74368535  0.51249282    -0.31600
H2411       H  0.62666575  0.68854611  0.51893798     0.12600
H2412       H  0.62423719  0.76992534  0.50961302     0.13200
C2413       C  0.00457897  0.74477536  0.57027133    -0.13200
C2414       C  0.00227436  0.74642722  0.59064127    -0.14800
C2415       C  0.85426774  0.47419525  0.51097045    -0.16400
C2416       C  0.87545126  0.50415715  0.50943976    -0.31600
H2417       H  0.86444500  0.94980511  0.50876389     0.12600
H2418       H  0.86258523  0.53068341  0.50981617     0.13200
C2419       C  0.60266899  0.45121036  0.51828832    -0.16400
C2420       C  0.62666105  0.47834713  0.51471831    -0.31600
H2421       H  0.61075246  0.92557105  0.51823365     0.12600
H2422       H  0.61594215  0.50521773  0.51123029     0.13200
C2423       C  0.99593728  0.48680250  0.59280288    -0.13200
C2424       C  0.99528734  0.48544000  0.57241545    -0.14800
C2425       C  0.73947321  0.71446686  0.42237947    -0.13200
C2426       C  0.74325385  0.72498220  0.44167894    -0.14800
C2427       C  0.73080817  0.94321780  0.42319268    -0.13200
C2428       C  0.73325387  0.95143317  0.44289525    -0.14800
C2429       C  0.98952439  0.77245439  0.41276376    -0.13200
C2430       C  0.99335175  0.76606118  0.43271956    -0.14800
C2431       C  0.81391393  0.78862939  0.35509822    -0.13300
C2432       C  0.80361945  0.76134621  0.33996488     0.08800
C2433       C  0.82732408  0.75053059  0.32278789    -0.13300
C2434       C  0.86280058  0.76283708  0.32270311    -0.13300
C2435       C  0.87474982  0.78637297  0.33966143     0.08800
C2436       C  0.84963225  0.80140619  0.35485256    -0.13300
H2437       H  0.79587240  0.79683964  0.36860255     0.12800
H2438       H  0.81965819  0.72934773  0.31106081     0.12800
H2439       H  0.88169608  0.75164504  0.31051231     0.12800
H2440       H  0.85846857  0.81994012  0.36788673     0.12800
C2441       C  0.60160625  0.58846786  0.34711245    -0.13300
C2442       C  0.58176843  0.59896687  0.36620589     0.08800
C2443       C  0.59972453  0.59947354  0.38705862    -0.13300
C2444       C  0.63740868  0.60348891  0.38744102    -0.13300
C2445       C  0.65652236  0.60408645  0.36707237     0.08800
C2446       C  0.63937475  0.59173971  0.34743391    -0.13300
H2447       H  0.58815851  0.58650760  0.33092231     0.12800
H2448       H  0.58470557  0.60610260  0.40222150     0.12800
H2449       H  0.65029610  0.61249476  0.40286108     0.12800
H2450       H  0.65388049  0.59151690  0.33156279     0.12800
C2451       C  0.97531771  0.01643447  0.43336325    -0.13200
C2452       C  0.97041101  0.02354726  0.41367460    -0.14800
C2453       C  0.79982267  0.03316015  0.36811514    -0.11700
C2454       C  0.78520531  0.01742799  0.34865279     0.08800
C2455       C  0.80546964  0.54021099  0.33797611    -0.13300
C2456       C  0.83751283  0.56002358  0.33740663    -0.13300
C2457       C  0.85246206  0.05051481  0.34666212     0.08800
C2458       C  0.83360071  0.04992654  0.36710396    -0.13300
H2459       H  0.78759423  0.02826506  0.38440652     0.12800
H2460       H  0.79197424  0.53345640  0.32231202     0.12800
H2461       H  0.84858545  0.56779356  0.32123571     0.12800
H2462       H  0.84697241  0.05772190  0.38262018     0.12800
C2463       C  0.61540586  0.33161611  0.34591953    -0.13300
C2464       C  0.58966769  0.83780841  0.36341983     0.08800
C2465       C  0.60920619  0.83590933  0.38364114    -0.13300
C2466       C  0.64705105  0.83349324  0.38297146    -0.13300
C2467       C  0.66467555  0.83510714  0.36207717     0.08800
C2468       C  0.65323586  0.33183940  0.34416217    -0.13300
H2469       H  0.59944041  0.33196144  0.33058138     0.12800
H2470       H  0.59617468  0.84296290  0.39941989     0.12800
H2471       H  0.66201838  0.83926085  0.39827303     0.12800
H2472       H  0.66521378  0.33280714  0.32751654     0.12800
C2473       C  0.76544623  0.70443692  0.08205968    -0.13200
C2474       C  0.76300446  0.70231430  0.10239666    -0.14800
C2475       C  0.76516725  0.67209776  0.25269639    -0.13300
C2476       C  0.73388843  0.67533331  0.23924504     0.08800
C2477       C  0.69968405  0.67367572  0.24971987    -0.13300
C2478       C  0.69696822  0.67101001  0.27330134    -0.13300
C2479       C  0.72838073  0.66844660  0.28675868     0.08800
C2480       C  0.76243652  0.66811435  0.27610358    -0.13300
H2481       H  0.79186809  0.67296228  0.24507942     0.12800
H2482       H  0.67512244  0.67604131  0.23977379     0.12800
H2483       H  0.67036547  0.67159695  0.28106763     0.12800
H2484       H  0.78710893  0.66671868  0.28601910     0.12800
C2485       C  0.74298457  0.45077982  0.10306421    -0.13200
C2486       C  0.74166564  0.45290258  0.08280577    -0.14800
C2487       C  0.66855427  0.83479479  0.18509616    -0.13300
C2488       C  0.67343129  0.85140575  0.16415405     0.08800
C2489       C  0.67370568  0.83027659  0.14453594    -0.13300
C2490       C  0.67585302  0.79268626  0.14621622    -0.13300
C2491       C  0.67816189  0.77659806  0.16750507     0.08800
C2492       C  0.67137710  0.79729298  0.18681530    -0.13300
H2493       H  0.66876562  0.85084836  0.20040075     0.12800
H2494       H  0.67806858  0.84278847  0.12828809     0.12800
H2495       H  0.68153131  0.77694261  0.13118659     0.12800
H2496       H  0.67344735  0.78514740  0.20335582     0.12800
C2497       C  0.81535129  0.54929706  0.19326617    -0.13300
C2498       C  0.81090169  0.52951677  0.17333062     0.08800
C2499       C  0.81585767  0.54636643  0.15249307    -0.13300
C2500       C  0.81813098  0.58391895  0.15152377    -0.13300
C2501       C  0.81550831  0.60422083  0.17140743     0.08800
C2502       C  0.81828394  0.58686373  0.19227855    -0.13300
H2503       H  0.81128480  0.53648497  0.20945171     0.12800
H2504       H  0.81218452  0.53128003  0.13698573     0.12800
H2505       H  0.81577270  0.59710429  0.13530333     0.12800
H2506       H  0.81599655  0.60234587  0.20774850     0.12800
C2507       C  0.77064117  0.41645750  0.25310419    -0.13300
C2508       C  0.74253196  0.43340901  0.24092440     0.08800
C2509       C  0.70221686  0.93970592  0.24945559    -0.13300
C2510       C  0.69948189  0.93652882  0.27287479    -0.13300
C2511       C  0.72711831  0.91957128  0.28542981     0.08800
C2512       C  0.76905853  0.41423677  0.27669096    -0.13300
H2513       H  0.79403872  0.40528317  0.24444027     0.12800
H2514       H  0.68052987  0.95333024  0.24045639     0.12800
H2515       H  0.67592926  0.94806012  0.28119669     0.12800
H2516       H  0.79134758  0.40153058  0.28563866     0.12800
C2517       C  0.49303121  0.70248197  0.08379958    -0.13200
C2518       C  0.49589604  0.69973779  0.10398115    -0.14800
C2519       C  0.95186522  0.84371813  0.24403236    -0.13300
C2520       C  0.97236623  0.82185106  0.22922530     0.08800
C2521       C  0.55207119  0.68572066  0.25203402    -0.13300
C2522       C  0.55390266  0.68510469  0.27564257    -0.13300
C2523       C  0.98135026  0.81584921  0.27652305     0.08800
C2524       C  0.95654472  0.84095309  0.26745567    -0.13300
H2525       H  0.93184331  0.86258125  0.23754070     0.12800
H2526       H  0.57699244  0.68639432  0.24237248     0.12800
H2527       H  0.58021109  0.68514280  0.28381193     0.12800
H2528       H  0.93979596  0.85741042  0.27849082     0.12800
C2529       C  0.51241306  0.95462716  0.08153406    -0.13200
C2530       C  0.51188821  0.95291858  0.10192657    -0.14800
C2531       C  0.57988946  0.83595373  0.14857398    -0.13300
C2532       C  0.57795297  0.85623624  0.16850047     0.08800
C2533       C  0.03708565  0.96401967  0.17541496    -0.13300
C2534       C  0.03456222  0.92637943  0.17524684    -0.13300
C2535       C  0.57241372  0.78149959  0.17034980     0.08800
C2536       C  0.57710495  0.79838170  0.14949943    -0.13300
H2537       H  0.57757159  0.84924273  0.13238957     0.12800
H2538       H  0.03772534  0.97802814  0.19146751     0.12800
H2539       H  0.03357970  0.91213772  0.19116247     0.12800
H2540       H  0.57322434  0.78333206  0.13400526     0.12800
C2541       C  0.88371427  0.68192798  0.14383365    -0.13300
C2542       C  0.45458971  0.52769903  0.17798180     0.08800
C2543       C  0.45170262  0.54808740  0.19780058    -0.13300
C2544       C  0.44671793  0.58548569  0.19651626    -0.13300
C2545       C  0.44593141  0.60235397  0.17540888     0.08800
C2546       C  0.88168267  0.71964914  0.14414187    -0.13300
H2547       H  0.88512028  0.66798280  0.12778053     0.12800
H2548       H  0.45804465  0.53594704  0.21392961     0.12800
H2549       H  0.44985033  0.60153331  0.21169387     0.12800
H2550       H  0.88192218  0.73402393  0.12826015     0.12800
C2551       C  0.55184503  0.44210186  0.25626213    -0.13300
C2552       C  0.96378034  0.06472972  0.22975472     0.08800
C2553       C  0.94500864  0.03629924  0.24012034    -0.13300
C2554       C  0.94381461  0.03356456  0.26355349    -0.13300
C2555       C  0.96073760  0.05956190  0.27725260     0.08800
C2556       C  0.55339454  0.43739638  0.27962859    -0.13300
H2557       H  0.57133911  0.45988251  0.24840256     0.12800
H2558       H  0.93159965  0.01579909  0.23009392     0.12800
H2559       H  0.92952500  0.01101536  0.27099886     0.12800
H2560       H  0.57383873  0.45195736  0.28907366     0.12800
loop_ 
_geom_bond_atom_site_label_1 
_geom_bond_atom_site_label_2 
_geom_bond_distance 
_geom_bond_site_symmetry_2 
_ccdc_geom_bond_type 
O1           Cu9   2.029       .  S
O1           C11   1.281       .  A
O2           Cu9   2.021       .  S
O2         C1932   1.278       .  A
O3           Cu9   1.975       .  S
O3         C1293   1.275       .  A
O4         Cu649   1.997       .  S
O4         C1294   1.273       .  A
O5          Cu10   1.986       .  S
O5           C14   1.277       .  A
O6         Cu650   2.004   1_455  S
O6           C13   1.274       .  A
O7          Cu10   2.025       .  S
O7           C12   1.279       .  A
O8          Cu10   2.022       .  S
O8         C1931   1.280       .  A
Cu9         O644   1.994       .  S
Cu9       Cu1930   2.378       .  S
Cu10        O646   2.000   1_655  S
Cu10      Cu1929   2.379       .  S
C11        O1928   1.280       .  A
C11         C632   1.491       .  S
C12        O1922   1.276       .  A
C12        C1250   1.442       .  S
C13        O1283   1.277   1_455  A
C13         C612   1.454       .  S
C14        O1284   1.273       .  A
C14         C622   1.453       .  S
O15         Cu23   1.991       .  S
O15          C25   1.278       .  A
O16         Cu23   2.006   1_455  S
O16          C26   1.274       .  A
O17         Cu23   2.008       .  S
O17        C1307   1.279       .  A
O18         Cu23   2.014       .  S
O18          C28   1.277       .  A
O19         Cu24   2.013       .  S
O19        C1308   1.276       .  A
O20         Cu24   2.011       .  S
O20          C27   1.278       .  A
O21         Cu24   1.992       .  S
O21        C1306   1.278       .  A
O22         Cu24   1.997       .  S
O22        C1305   1.273       .  A
Cu23      Cu1304   2.378       .  S
Cu24      Cu1303   2.379       .  S
C25        O1302   1.273       .  A
C25         C625   1.454       .  S
C26        O1301   1.276   1_455  A
C26         C615   1.454       .  S
C27        O1297   1.280       .  A
C27         C600   1.483       .  S
C28        O1299   1.280       .  A
C28         C598   1.447       .  S
O29         Cu37   2.001       .  S
O29          C39   1.273       .  A
O30        Cu677   1.975       .  S
O30          C40   1.276       .  A
O31         Cu37   2.023       .  S
O31          C41   1.278       .  A
O32         Cu37   2.019       .  S
O32          C42   1.280       .  A
O33         Cu38   2.023       .  S
O33          C42   1.279       .  A
O34         Cu38   2.024       .  S
O34          C41   1.278       .  A
O35        Cu678   2.002       .  S
O35          C40   1.274       .  A
O36         Cu38   2.001       .  S
O36          C39   1.279       .  A
Cu37        O670   1.977       .  S
Cu37        Cu38   2.378       .  S
Cu38        O675   2.012       .  S
C39         C578   1.458       .  S
C40         C568   1.450       .  S
C41         C565   1.446       .  S
C42         C588   1.484       .  S
O43         Cu51   2.012       .  S
O43          C53   1.279       .  A
O44         Cu51   2.016       .  S
O44          C54   1.277       .  A
O45         Cu51   1.976       .  S
O45          C55   1.275       .  A
O46         Cu51   1.990       .  S
O46          C56   1.272       .  A
O47         Cu52   1.994       .  S
O47          C56   1.278       .  A
O48         Cu52   2.017       .  S
O48          C55   1.276       .  A
O49         Cu52   2.022       .  S
O49          C54   1.278       .  A
O50         Cu52   2.023       .  S
O50          C53   1.279       .  A
Cu51        Cu52   2.379       .  S
C53         C556   1.480       .  S
C54         C554   1.442       .  S
C55         C581   1.457       .  S
C56         C571   1.451       .  S
O57         Cu65   2.004       .  S
O57         C707   1.275       .  A
O58         Cu65   2.013       .  S
O58         C708   1.279       .  A
O59         Cu65   1.996       .  S
O59         C709   1.274       .  A
O60       Cu1345   1.977   1_455  S
O60         C710   1.275       .  A
O61       Cu1346   1.992   1_455  S
O61          C70   1.277       .  A
O62         Cu66   1.977       .  S
O62          C69   1.276       .  A
O63         Cu66   2.028       .  S
O63          C68   1.281       .  A
O64         Cu66   2.035       .  S
O64          C67   1.281       .  A
Cu65       O1340   1.998       .  S
Cu65       Cu706   2.378       .  S
Cu66       O1341   2.007       .  S
Cu66       Cu705   2.378       .  S
C67         O697   1.275       .  A
C67         C532   1.444       .  S
C68         O698   1.279       .  A
C68         C635   1.490       .  S
C69         O699   1.274       .  A
C69         C537   1.451       .  S
C70         O700   1.276       .  A
C70         C544   1.467       .  S
O71         Cu79   2.024       .  S
O71          C81   1.279       .  A
O72         Cu79   2.030       .  S
O72          C82   1.280       .  A
O73         Cu79   1.985       .  S
O73          C83   1.271       .  A
O74       Cu1359   1.994   1_455  S
O74          C84   1.277       .  A
O75       Cu1360   1.973       .  S
O75          C84   1.274       .  A
O76         Cu80   1.993       .  S
O76          C83   1.278       .  A
O77         Cu80   2.012       .  S
O77          C82   1.279       .  A
O78         Cu80   2.009       .  S
O78          C81   1.276       .  A
Cu79       O1354   1.975       .  S
Cu79        Cu80   2.379       .  S
Cu80       O1355   2.018       .  S
C81         C509   1.440       .  S
C82         C603   1.484       .  S
C83         C515   1.448       .  S
C84         C522   1.464       .  S
O85         Cu93   2.010       .  S
O85          C95   1.278       .  A
O86         Cu93   2.020       .  S
O86          C96   1.277       .  A
O87         Cu93   1.980       .  S
O87          C97   1.275       .  A
O88         Cu93   1.967       .  S
O88          C98   1.275       .  A
O89         Cu94   1.996       .  S
O89         C738   1.274       .  A
O90         Cu94   1.984       .  S
O90         C737   1.276       .  A
O91         Cu94   2.032       .  S
O91         C736   1.280       .  A
O92         Cu94   2.033       .  S
O92         C735   1.281       .  A
Cu93       Cu734   2.376       .  S
Cu94       Cu733   2.376   1_545  S
C95         O732   1.281       .  A
C95         C591   1.484       .  S
C96         O731   1.280       .  A
C96         C507   1.449       .  S
C97         O730   1.278       .  A
C97         C547   1.468       .  S
C98         O729   1.275       .  A
C98         C534   1.455       .  S
O99        Cu107   1.994       .  S
O99         C109   1.272       .  A
O100       Cu107   1.987       .  S
O100        C110   1.276       .  A
O101       Cu107   2.047       .  S
O101        C111   1.282       .  A
O102       Cu107   2.044       .  S
O102        C112   1.283       .  A
O103       Cu108   1.993       .  S
O103        C112   1.276       .  A
O104       Cu108   2.003       .  S
O104        C111   1.274       .  A
O105       Cu108   1.980       .  S
O105        C110   1.276       .  A
O106       Cu108   1.980       .  S
O106        C109   1.276       .  A
Cu107      Cu108   2.377       .  S
C109        C512   1.448       .  S
C110        C525   1.464       .  S
C111        C505   1.448       .  S
C112        C559   1.486       .  S
O113       Cu121   2.004       .  S
O113        C123   1.274       .  A
O114       Cu121   2.007       .  S
O114        C764   1.275       .  A
O115       Cu121   2.073       .  S
O115        C125   1.286       .  A
O116      Cu1401   2.029   1_455  S
O116        C126   1.280       .  A
O117      Cu1402   2.078   1_455  S
O117        C766   1.286   1_545  A
O118       Cu122   2.027       .  S
O118        C765   1.279   1_545  A
O119       Cu122   2.035       .  S
O119        C124   1.280   1_545  A
O120       Cu122   2.034   1_565  S
O120        C763   1.281       .  A
Cu121      O1396   2.068       .  S
Cu121      Cu762   2.369       .  S
Cu122      O1397   2.022   1_545  S
Cu122      Cu761   2.370   1_545  S
C123        O760   1.281       .  A
C123        C531   1.445       .  S
C124        O754   1.275       .  A
C124        C504   1.444       .  S
C125        O758   1.278       .  A
C125       C1136   1.504       .  S
C126        O757   1.285       .  A
C126       C1139   1.506       .  S
O127      Cu1415   2.021       .  S
O127        C137   1.277       .  A
O128       Cu135   2.053       .  S
O128        C138   1.283       .  A
O129       Cu135   2.007       .  S
O129        C139   1.275       .  A
O130       Cu135   2.009       .  S
O130        C140   1.276       .  A
O131       Cu136   2.021       .  S
O131        C140   1.278       .  A
O132       Cu136   2.023       .  S
O132        C139   1.278       .  A
O133       Cu136   2.061       .  S
O133        C138   1.283       .  A
O134      Cu1416   2.101       .  S
O134        C137   1.289       .  A
Cu135      O1407   2.047       .  S
Cu135      Cu136   2.370       .  S
Cu136      O1414   2.047       .  S
C137        C489   1.512       .  S
C138        C485   1.510       .  S
C139        C510   1.440       .  S
C140        C493   1.440       .  S
O141       Cu149   2.040       .  S
O141        C151   1.281       .  A
O142       Cu149   2.037       .  S
O142        C792   1.280       .  A
O143       Cu149   2.041       .  S
O143        C793   1.281       .  A
O144       Cu149   2.035       .  S
O144        C794   1.280       .  A
O145       Cu150   2.061       .  S
O145        C154   1.284   1_545  A
O146       Cu150   2.062       .  S
O146        C153   1.284       .  A
O147       Cu150   2.012       .  S
O147        C152   1.276   1_545  A
O148       Cu150   2.016       .  S
O148        C791   1.276       .  A
Cu149      Cu790   2.369       .  S
Cu150      Cu789   2.369   1_545  S
C151        O788   1.275       .  A
C151        C508   1.449       .  S
C152        O782   1.279       .  A
C152        C484   1.445       .  S
C153        O783   1.282   1_545  A
C153        C500   1.511       .  S
C154        O784   1.280       .  A
C154        C495   1.505       .  S
O155       Cu163   2.015       .  S
O155        C165   1.276       .  A
O156       Cu163   2.010       .  S
O156        C166   1.276       .  A
O157       Cu163   2.053       .  S
O157        C167   1.283       .  A
O158       Cu163   2.058       .  S
O158        C168   1.283       .  A
O159       Cu164   2.065       .  S
O159        C168   1.285       .  A
O160       Cu164   2.061       .  S
O160        C167   1.283       .  A
O161       Cu164   2.028       .  S
O161        C166   1.279       .  A
O162       Cu164   2.037       .  S
O162        C165   1.280       .  A
Cu163      Cu164   2.368       .  S
C165        C506   1.449       .  S
C166        C481   1.443       .  S
C167        C486   1.510       .  S
C168        C490   1.515       .  S
O169       Cu177   2.031   1_655  S
O169        C179   1.279       .  A
O170       Cu177   2.028   1_556  S
O170        C180   1.279   1_455  A
O171       Cu817   2.029   1_655  S
O171        C181   1.279       .  A
O172       Cu177   2.032   1_655  S
O172        C182   1.279       .  A
O173       Cu178   2.072       .  S
O173       C1462   1.285       .  A
O174       Cu818   2.072   1_545  S
O174       C1461   1.285       .  A
O175       Cu178   2.020   1_556  S
O175       C1460   1.277       .  A
O176       Cu178   2.021       .  S
O176       C1459   1.277       .  A
Cu177       O811   2.034   1_455  S
Cu177     Cu1458   2.368   1_455  S
Cu178       O814   2.069       .  S
Cu178     Cu1457   2.369       .  S
C179       O1456   1.277       .  A
C179        C609   1.450       .  S
C180       O1455   1.277       .  A
C180        C480   1.447       .  S
C181       O1454   1.286       .  A
C181        C476   1.504       .  S
C182       O1453   1.286       .  A
C182        C472   1.507       .  S
O183       Cu191   2.012       .  S
O183        C193   1.276       .  A
O184       Cu191   2.012   1_556  S
O184        C194   1.276       .  A
O185       Cu191   2.073       .  S
O185        C195   1.286       .  A
O186       Cu191   2.070       .  S
O186        C196   1.286       .  A
O187       Cu192   2.034       .  S
O187       C1476   1.280       .  A
O188       Cu192   2.037       .  S
O188       C1475   1.280       .  A
O189       Cu192   2.026   1_556  S
O189       C1474   1.279       .  A
O190       Cu192   2.028       .  S
O190       C1473   1.279       .  A
Cu191     Cu1472   2.369       .  S
Cu192     Cu1471   2.370       .  S
C193       O1470   1.280       .  A
C193        C597   1.447       .  S
C194       O1469   1.280       .  A
C194        C469   1.448       .  S
C195       O1468   1.279       .  A
C195        C471   1.507       .  S
C196       O1467   1.279       .  A
C196        C475   1.505       .  S
O197       Cu205   2.026       .  S
O197        C207   1.278       .  A
O198       Cu205   2.026   1_556  S
O198        C208   1.278       .  A
O199       Cu845   2.052       .  S
O199        C209   1.282       .  A
O200       Cu205   2.042       .  S
O200        C210   1.282       .  A
O201       Cu206   2.046       .  S
O201        C210   1.282       .  A
O202       Cu846   2.044       .  S
O202        C209   1.282       .  A
O203       Cu206   2.025   1_556  S
O203        C208   1.278       .  A
O204       Cu206   2.027       .  S
O204        C207   1.278       .  A
Cu205       O839   2.049       .  S
Cu205      Cu206   2.370       .  S
Cu206       O842   2.047       .  S
C207       C1206   1.449       .  S
C208        C467   1.448       .  S
C209        C463   1.502       .  S
C210        C459   1.501       .  S
O211       Cu219   2.016   1_556  S
O211        C221   1.277       .  A
O212       Cu219   2.017       .  S
O212        C222   1.277       .  A
O213       Cu219   2.051       .  S
O213        C223   1.283       .  A
O214       Cu219   2.053       .  S
O214        C224   1.283       .  A
O215       Cu220   2.038       .  S
O215        C224   1.281       .  A
O216       Cu220   2.041       .  S
O216        C223   1.281       .  A
O217       Cu220   2.019       .  S
O217        C222   1.278       .  A
O218       Cu220   2.016   1_556  S
O218        C221   1.277       .  A
Cu219      Cu220   2.371       .  S
C221        C458   1.440       .  S
C222        C553   1.442       .  S
C223        C464   1.504       .  S
C224        C460   1.501       .  S
O225       Cu873   2.005       .  S
O225        C235   1.274       .  A
O226       Cu233   1.996   1_655  S
O226        C236   1.278       .  A
O227       Cu233   2.028       .  S
O227       C1517   1.281   1_455  A
O228       Cu233   2.023   1_655  S
O228        C238   1.278       .  A
O229       Cu234   2.024       .  S
O229       C1518   1.278       .  A
O230       Cu234   2.028       .  S
O230        C237   1.281       .  A
O231       Cu234   2.006       .  S
O231       C1516   1.274       .  A
O232       Cu874   1.981   1_545  S
O232       C1515   1.276       .  A
Cu233       O865   2.008       .  S
Cu233     Cu1514   2.377   1_455  S
Cu234       O872   1.991       .  S
Cu234     Cu1513   2.378       .  S
C235       O1512   1.276   1_455  A
C235        C438   1.453       .  S
C236       O1511   1.273       .  A
C236        C428   1.456       .  S
C237       O1507   1.279       .  A
C237       C1088   1.490       .  S
C238       O1509   1.278       .  A
C238        C479   1.447       .  S
O239       Cu247   1.978       .  S
O239       C1529   1.276       .  A
O240       Cu247   1.993   1_455  S
O240       C1530   1.272       .  A
O241       Cu247   2.022       .  S
O241       C1531   1.280       .  A
O242       Cu247   2.027       .  S
O242        C252   1.279       .  A
O243       Cu248   2.014       .  S
O243       C1532   1.277       .  A
O244       Cu248   2.008       .  S
O244        C251   1.279       .  A
O245       Cu248   1.998       .  S
O245        C250   1.278       .  A
O246       Cu248   2.007       .  S
O246        C249   1.274       .  A
Cu247     Cu1528   2.377       .  S
Cu248     Cu1527   2.379       .  S
C249       O1519   1.277       .  A
C249        C431   1.456       .  S
C250       O1520   1.274       .  A
C250        C441   1.457       .  S
C251       O1521   1.279       .  A
C251        C418   1.483       .  S
C252       O1523   1.278       .  A
C252        C470   1.448       .  S
O253       Cu901   2.000       .  S
O253        C263   1.273       .  A
O254       Cu261   1.994       .  S
O254        C264   1.278       .  A
O255       Cu261   2.028       .  S
O255        C265   1.279       .  A
O256       Cu261   2.020       .  S
O256        C266   1.280       .  A
O257       Cu262   2.025       .  S
O257        C266   1.280       .  A
O258       Cu262   2.019       .  S
O258        C265   1.278       .  A
O259       Cu262   1.998       .  S
O259        C264   1.273       .  A
O260       Cu902   1.995       .  S
O260        C263   1.278       .  A
Cu261       O893   2.006       .  S
Cu261      Cu262   2.377       .  S
Cu262       O900   1.988   1_545  S
C263        C391   1.455       .  S
C264        C398   1.455       .  S
C265       C1108   1.446       .  S
C266        C408   1.490       .  S
O267       Cu275   2.017       .  S
O267        C277   1.277       .  A
O268       Cu275   2.009       .  S
O268        C278   1.279       .  A
O269       Cu275   2.002       .  S
O269        C279   1.274       .  A
O270       Cu275   1.985       .  S
O270        C280   1.277       .  A
O271       Cu276   2.001       .  S
O271        C280   1.273       .  A
O272       Cu276   1.986       .  S
O272        C279   1.277       .  A
O273       Cu276   2.020       .  S
O273        C278   1.280       .  A
O274       Cu276   2.015       .  S
O274        C277   1.277       .  A
Cu275      Cu276   2.379       .  S
C277        C457   1.440       .  S
C278        C378   1.484       .  S
C279        C401   1.453       .  S
C280        C388   1.453       .  S
O281       Cu289   2.017       .  S
O281        C931   1.278       .  A
O282       Cu289   2.021       .  S
O282        C932   1.280       .  A
O283       Cu289   2.009       .  S
O283        C933   1.274       .  A
O284      Cu1569   1.989       .  S
O284        C934   1.277       .  A
O285      Cu1570   2.008   1_455  S
O285        C294   1.274       .  A
O286       Cu290   1.994   1_565  S
O286        C293   1.278       .  A
O287       Cu290   2.025       .  S
O287        C292   1.280   1_545  A
O288       Cu290   2.028       .  S
O288        C291   1.279   1_545  A
Cu289      O1564   1.992       .  S
Cu289      Cu930   2.378       .  S
Cu290      O1565   2.004       .  S
Cu290      Cu929   2.377   1_545  S
C291        O921   1.277       .  A
C291        C503   1.444       .  S
C292        O922   1.280       .  A
C292        C451   1.491       .  S
C293        O923   1.274       .  A
C293        C361   1.458       .  S
C294        O924   1.277       .  A
C294        C368   1.455       .  S
O295       Cu303   1.990       .  S
O295        C305   1.272       .  A
O296      Cu1583   1.979       .  S
O296        C306   1.276       .  A
O297       Cu303   2.026       .  S
O297        C307   1.279       .  A
O298       Cu303   2.025       .  S
O298        C308   1.280       .  A
O299       Cu304   2.001       .  S
O299        C308   1.278       .  A
O300       Cu304   2.003       .  S
O300        C307   1.275       .  A
O301      Cu1584   2.006   1_455  S
O301        C306   1.274       .  A
O302       Cu304   2.000       .  S
O302        C305   1.279       .  A
Cu303      O1576   1.979       .  S
Cu303      Cu304   2.379       .  S
Cu304      O1581   2.014       .  S
C305        C338   1.454       .  S
C306        C348   1.453       .  S
C307        C494   1.439       .  S
C308        C421   1.484       .  S
O309       Cu317   2.000       .  S
O309        C959   1.273       .  A
O310       Cu317   1.985       .  S
O310        C960   1.276       .  A
O311       Cu317   2.030       .  S
O311        C961   1.279       .  A
O312       Cu317   2.025       .  S
O312        C962   1.281       .  A
O313       Cu318   2.018       .  S
O313        C322   1.280       .  A
O314       Cu318   2.011       .  S
O314        C321   1.276   1_545  A
O315       Cu318   2.000       .  S
O315        C320   1.273       .  A
O316       Cu318   1.988   1_565  S
O316        C319   1.277       .  A
Cu317      Cu958   2.377       .  S
Cu318      Cu957   2.377   1_545  S
C319        O949   1.275       .  A
C319        C358   1.458       .  S
C320        O950   1.278       .  A
C320        C371   1.456       .  S
C321        O951   1.279       .  A
C321        C483   1.445       .  S
C322        O952   1.281   1_545  A
C322        C411   1.490       .  S
O323       Cu331   1.980       .  S
O323        C333   1.276       .  A
O324       Cu331   1.994       .  S
O324        C334   1.272       .  A
O325       Cu331   2.024       .  S
O325        C335   1.278       .  A
O326       Cu331   2.022       .  S
O326        C336   1.280       .  A
O327       Cu332   2.008       .  S
O327        C336   1.278       .  A
O328       Cu332   2.014       .  S
O328        C335   1.277       .  A
O329       Cu332   1.996       .  S
O329        C334   1.278       .  A
O330       Cu332   2.007       .  S
O330        C333   1.274       .  A
Cu331      Cu332   2.379       .  S
C333        C341   1.453       .  S
C334        C351   1.454       .  S
C335        C482   1.443       .  S
C336        C381   1.485       .  S
C337        C338   1.401       .  A
C337        C342   1.394       .  A
C337        H343   1.084       .  S
C338        C339   1.398       .  A
C339        C340   1.393       .  A
C339        H344   1.084       .  S
C340        C341   1.402       .  A
C340        H345   1.084       .  S
C341        C342   1.400       .  A
C342        H346   1.083       .  S
C347        C348   1.401       .  A
C347        C352   1.394       .  A
C347        H353   1.084       .  S
C348        C349   1.401       .  A
C349        C350   1.394       .  A
C349        H354   1.084       .  S
C350        C351   1.399       .  A
C350        H355   1.084       .  S
C351        C352   1.400       .  A
C352        H356   1.084       .  S
C357        C358   1.402       .  A
C357        C362   1.395       .  A
C357        H363   1.084       .  S
C358        C999   1.401       .  A
C359        C360   1.395       .  A
C359        C998   1.400       .  A
C359        H364   1.084       .  S
C360       C1001   1.402       .  A
C360        H365   1.084       .  S
C361        C362   1.401       .  A
C361       C1000   1.401       .  A
C362        H366   1.084       .  S
C367        C368   1.402       .  A
C367        C372   1.395       .  A
C367        H373   1.084       .  S
C368        C369   1.401       .  A
C369        C370   1.395       .  A
C369        H374   1.084       .  S
C370        C371   1.401       .  A
C370        H375   1.084       .  S
C371        C372   1.400       .  A
C372        H376   1.083       .  S
C377        C378   1.406       .  A
C377        C382   1.399       .  A
C377        H383   1.083       .  S
C378        C379   1.406       .  A
C379        C380   1.401       .  A
C379        H384   1.083       .  S
C380        C381   1.406       .  A
C380        H385   1.083       .  S
C381        C382   1.406       .  A
C382        H386   1.083       .  S
C387        C388   1.400       .  A
C387        C392   1.393       .  A
C387        H393   1.084       .  S
C388        C389   1.401       .  A
C389        C390   1.395       .  A
C389        H394   1.084       .  S
C390        C391   1.401       .  A
C390        H395   1.084       .  S
C391        C392   1.400       .  A
C392        H396   1.083       .  S
C397        C398   1.399       .  A
C397        C402   1.394       .  A
C397        H403   1.083       .  S
C398        C399   1.401       .  A
C399        C400   1.395       .  A
C399        H404   1.084       .  S
C400        C401   1.400       .  A
C400        H405   1.084       .  S
C401        C402   1.401       .  A
C402        H406   1.084       .  S
C407        C412   1.403       .  A
C407       C1048   1.407       .  A
C407        H413   1.083       .  S
C408        C409   1.407       .  A
C408       C1047   1.408   1_545  A
C409        C410   1.401       .  A
C409        H414   1.083       .  S
C410        C411   1.407       .  A
C410        H415   1.083       .  S
C411       C1052   1.407   1_545  A
C412       C1051   1.407       .  A
C412        H416   1.083       .  S
C417        C418   1.404       .  A
C417        C422   1.396       .  A
C417        H423   1.083       .  S
C418       C1699   1.407       .  A
C419        C420   1.402       .  A
C419       C1698   1.407   1_455  A
C419        H424   1.083       .  S
C420       C1701   1.407   1_455  A
C420        H425   1.083       .  S
C421        C422   1.406       .  A
C421       C1700   1.406       .  A
C422        H426   1.083       .  S
C427        C432   1.394       .  A
C427       C1708   1.401       .  A
C427        H433   1.084       .  S
C428        C429   1.399       .  A
C428       C1707   1.401       .  A
C429        C430   1.395       .  A
C429        H434   1.083       .  S
C430       C1711   1.402       .  A
C430        H435   1.084       .  S
C431        C432   1.401       .  A
C431       C1710   1.401       .  A
C432        H436   1.084       .  S
C437        C442   1.396       .  A
C437       C1718   1.401       .  A
C437        H443   1.083       .  S
C438        C439   1.402       .  A
C438       C1717   1.400       .  A
C439        C440   1.394       .  A
C439        H444   1.084       .  S
C440       C1721   1.399       .  A
C440        H445   1.084       .  S
C441        C442   1.401       .  A
C441       C1720   1.400       .  A
C442        H446   1.083       .  S
C447        C448   1.408       .  A
C447        C452   1.404       .  A
C447        H453   1.083   1_565  S
C448        C877   1.492       .  S
C448       C2369   1.407       .  A
C449        C450   1.403       .  A
C449       C2368   1.407   1_455  A
C449        H454   1.083       .  S
C450       C2371   1.408   1_455  A
C450        H455   1.083       .  S
C451        C452   1.407       .  A
C451       C2370   1.407       .  A
C452        H456   1.083   1_565  S
C457        C458   1.209       .  T
C459        C460   1.354       .  D
C459        H461   1.086       .  S
C460        H462   1.086       .  S
C463        C464   1.356       .  D
C463        H465   1.086       .  S
C464        H466   1.086       .  S
C467        C468   1.214       .  T
C468        C905   1.448       .  S
C469        C470   1.213       .  T
C471        C472   1.354       .  D
C471       H1753   1.086       .  S
C472        H474   1.086       .  S
H473       C1751   1.086       .  S
C475        C476   1.353       .  D
C475       H1757   1.086       .  S
C476        H478   1.086       .  S
H477       C1755   1.086       .  S
C479        C480   1.213       .  T
C481        C482   1.210       .  T
C483        C484   1.211       .  T
C485        C486   1.359       .  D
C485        H487   1.086       .  S
C486        H488   1.086       .  S
C489        C490   1.357       .  D
C489        H491   1.087       .  S
C490        H492   1.086       .  S
C493        C494   1.209       .  T
C495        C496   1.353       .  D
C495       H1137   1.086       .  S
C496        C765   1.504       .  S
C496        H498   1.086   1_565  S
H497       C1135   1.086       .  S
C499        C766   1.507       .  S
C499        C500   1.357   1_565  D
C499       H1141   1.087       .  S
C500        H502   1.086       .  S
H501       C1139   1.086       .  S
C503        C504   1.211       .  T
C505        C506   1.214       .  T
C507        C508   1.214       .  T
C509        C510   1.209       .  T
C511        C512   1.398       .  A
C511        C516   1.393       .  A
C511        H517   1.084       .  S
C512        C513   1.401       .  A
C513        C514   1.391       .  A
C513        H518   1.084       .  S
C514        C515   1.397       .  A
C514        H519   1.084       .  S
C515        C516   1.401       .  A
C516        H520   1.084       .  S
C521        C522   1.403       .  A
C521        C526   1.391       .  A
C521        H527   1.083       .  S
C522        C523   1.403       .  A
C523        C524   1.389       .  A
C523        H528   1.083       .  S
C524        C525   1.402       .  A
C524        H529   1.083       .  S
C525        C526   1.404       .  A
C526        H530   1.083       .  S
C531        C532   1.212       .  T
C533        C534   1.402       .  A
C533        C538   1.400       .  A
C533        H539   1.083       .  S
C534       C1175   1.400       .  A
C535        C536   1.386   1_545  A
C535       C1174   1.399       .  A
C535        H540   1.084       .  S
C536       C1177   1.398       .  A
C536        H541   1.084       .  S
C537        C538   1.403       .  A
C537       C1176   1.397       .  A
C538        H542   1.083       .  S
C543        C548   1.388       .  A
C543       C1184   1.403       .  A
C543        H549   1.083       .  S
C544        C545   1.404       .  A
C544       C1183   1.403       .  A
C545        C546   1.392       .  A
C545        H550   1.083       .  S
C546        C547   1.402       .  A
C546        H551   1.083       .  S
C547       C1188   1.405       .  A
C548       C1187   1.402       .  A
C548        H552   1.083       .  S
C553        C554   1.210       .  T
C555        C556   1.401       .  A
C555        C560   1.396       .  A
C555        H561   1.083       .  S
C556        C557   1.407       .  A
C557        C558   1.406       .  A
C557        H562   1.083       .  S
C558        C559   1.407       .  A
C558        H563   1.083       .  S
C559        C560   1.407       .  A
C560        H564   1.083       .  S
C565        C566   1.213       .  T
C566        C847   1.447       .  S
C567        C568   1.401       .  A
C567        C572   1.392       .  A
C567        H573   1.084       .  S
C568        C569   1.401       .  A
C569        C570   1.394       .  A
C569        H574   1.084       .  S
C570        C571   1.399       .  A
C570        H575   1.083       .  S
C571        C572   1.400       .  A
C572        H576   1.084       .  S
C577        C578   1.400       .  A
C577        C582   1.395       .  A
C577        H583   1.084       .  S
C578        C579   1.400       .  A
C579        C580   1.396       .  A
C579        H584   1.083       .  S
C580        C581   1.402       .  A
C580        H585   1.084       .  S
C581        C582   1.402       .  A
C582        H586   1.084       .  S
C587        C588   1.404       .  A
C587        C592   1.398       .  A
C587        H593   1.083   1_545  S
C588       C1229   1.407       .  A
C589        C590   1.404       .  A
C589       C1228   1.407       .  A
C589        H594   1.083       .  S
C590        C591   1.405       .  A
C590        H595   1.083       .  S
C591       C1232   1.406       .  A
C592       C1231   1.406       .  A
C592        H596   1.083   1_545  S
C597        C598   1.213       .  T
C599        C600   1.404       .  A
C599        C604   1.398       .  A
C599        H605   1.083       .  S
C600       C1881   1.407       .  A
C601        C602   1.405       .  A
C601       C1880   1.408       .  A
C601        H606   1.083       .  S
C602       C1883   1.406       .  A
C602        H607   1.083       .  S
C603        C604   1.405       .  A
C603       C1882   1.407       .  A
C604        H608   1.083       .  S
C609        C610   1.214       .  T
C610        C652   1.450       .  S
C611        C612   1.402       .  A
C611        C616   1.395       .  A
C611        H617   1.084       .  S
C612       C1893   1.399       .  A
C613        C614   1.392       .  A
C613       C1892   1.400       .  A
C613        H618   1.084       .  S
C614       C1895   1.399       .  A
C614        H619   1.084       .  S
C615        C616   1.399       .  A
C615       C1894   1.402       .  A
C616        H620   1.083       .  S
C621        C626   1.394       .  A
C621       C1902   1.401       .  A
C621        H627   1.084       .  S
C622        C623   1.401       .  A
C622       C1901   1.400       .  A
C623        C624   1.393       .  A
C623        H628   1.084       .  S
C624        C625   1.400       .  A
C624        H629   1.084       .  S
C625       C1906   1.401       .  A
C626       C1905   1.400       .  A
C626        H630   1.084       .  S
C631        C636   1.404       .  A
C631       C2552   1.408       .  A
C631        H637   1.083       .  S
C632        C633   1.408       .  A
C632       C2551   1.407       .  A
C633        C634   1.404       .  A
C633        H638   1.083       .  S
C634        C635   1.407       .  A
C634        H639   1.083       .  S
C635       C2556   1.407       .  A
C636       C2555   1.405       .  A
C636        H640   1.083       .  S
O641       Cu649   2.031       .  S
O641        C651   1.281       .  A
O642       Cu649   2.025       .  S
O642       C1292   1.279       .  A
O643       Cu649   1.976       .  S
O643       C1933   1.276       .  A
O644       C1934   1.272       .  A
O645       Cu650   1.988       .  S
O645        C654   1.277       .  A
O646        C653   1.273       .  A
O647       Cu650   2.028       .  S
O647        C652   1.279       .  A
O648       Cu650   2.027       .  S
O648       C1291   1.280       .  A
Cu649     Cu1290   2.378       .  S
Cu650     Cu1289   2.377       .  S
C651       O1288   1.280       .  A
C651       C1272   1.491       .  S
C652       O1282   1.279       .  A
C653       O1923   1.277   1_455  A
C653       C1252   1.452   1_545  S
C654       O1924   1.272       .  A
C654       C1262   1.453       .  S
O655       Cu663   1.983       .  S
O655        C665   1.277       .  A
O656       Cu663   1.996   1_455  S
O656        C666   1.272       .  A
O657       Cu663   2.014       .  S
O657       C1947   1.279       .  A
O658       Cu663   2.013       .  S
O658        C668   1.277       .  A
O659       Cu664   2.007       .  S
O659       C1948   1.276       .  A
O660       Cu664   1.999       .  S
O660        C667   1.277       .  A
O661       Cu664   1.998       .  S
O661       C1946   1.279       .  A
O662       Cu664   2.004       .  S
O662       C1945   1.274       .  A
Cu663     Cu1944   2.378       .  S
Cu664     Cu1943   2.381       .  S
C665       O1942   1.274       .  A
C665       C1265   1.454       .  S
C666       O1941   1.278   1_455  A
C666       C1255   1.453       .  S
C667       O1937   1.280       .  A
C667       C1240   1.477       .  S
C668       O1939   1.279       .  A
C668       C1238   1.445       .  S
O669       Cu677   1.998       .  S
O669        C679   1.273       .  A
O670        C680   1.276       .  A
O671       Cu677   2.031       .  S
O671        C681   1.279       .  A
O672       Cu677   2.024       .  S
O672        C682   1.281       .  A
O673       Cu678   2.017       .  S
O673        C682   1.279       .  A
O674       Cu678   2.020       .  S
O674        C681   1.278       .  A
O675        C680   1.275       .  A
O676       Cu678   1.989       .  S
O676        C679   1.277       .  A
Cu677      Cu678   2.379       .  S
C679       C1218   1.453       .  S
C680       C1208   1.455   1_545  S
C681       C1205   1.448       .  S
C682       C1228   1.484       .  S
O683       Cu691   2.015       .  S
O683        C693   1.280       .  A
O684       Cu691   2.016       .  S
O684        C694   1.277       .  A
O685       Cu691   1.988       .  S
O685        C695   1.277       .  A
O686       Cu691   2.004       .  S
O686        C696   1.274       .  A
O687       Cu692   1.991       .  S
O687        C696   1.277       .  A
O688       Cu692   2.005       .  S
O688        C695   1.274       .  A
O689       Cu692   2.022       .  S
O689        C694   1.278       .  A
O690       Cu692   2.026       .  S
O690        C693   1.280       .  A
Cu691      Cu692   2.378       .  S
C693       C1196   1.487       .  S
C694       C1194   1.442       .  S
C695       C1221   1.455       .  S
C696       C1211   1.456       .  S
O697       Cu705   2.005       .  S
O698       Cu705   2.013       .  S
O699       Cu705   1.997       .  S
O700      Cu1985   1.986   1_455  S
O701      Cu1986   1.984   1_455  S
O701        C710   1.276       .  A
O702       Cu706   1.974       .  S
O702        C709   1.275       .  A
O703       Cu706   2.029       .  S
O703        C708   1.281       .  A
O704       Cu706   2.033       .  S
O704        C707   1.280       .  A
Cu705      O1980   1.996       .  S
Cu706      O1981   2.004       .  S
C707       C1172   1.443       .  S
C708       C1275   1.491       .  S
C709       C1177   1.448       .  S
C710       C1184   1.462       .  S
O711       Cu719   2.017       .  S
O711        C721   1.278       .  A
O712       Cu719   2.021       .  S
O712        C722   1.279       .  A
O713       Cu719   1.994       .  S
O713        C723   1.273       .  A
O714      Cu1999   2.006   1_455  S
O714        C724   1.278       .  A
O715      Cu2000   1.978   1_455  S
O715        C724   1.275       .  A
O716       Cu720   1.993       .  S
O716        C723   1.278       .  A
O717       Cu720   2.007       .  S
O717        C722   1.279       .  A
O718       Cu720   2.010       .  S
O718        C721   1.276       .  A
Cu719      O1994   1.980       .  S
Cu719      Cu720   2.380       .  S
Cu720      O1995   2.015       .  S
C721       C1149   1.438       .  S
C722       C1243   1.478       .  S
C723       C1155   1.452       .  S
C724       C1162   1.470       .  S
O725       Cu733   2.010   1_545  S
O725        C735   1.279       .  A
O726       Cu733   2.021       .  S
O726        C736   1.277   1_565  A
O727       Cu733   1.979   1_545  S
O727        C737   1.275       .  A
O728       Cu733   1.975       .  S
O728        C738   1.276   1_565  A
O729       Cu734   2.007       .  S
O730       Cu734   1.999       .  S
O731       Cu734   2.033       .  S
O732       Cu734   2.030       .  S
C735       C1231   1.488       .  S
C736       C1147   1.449       .  S
C737       C1187   1.463       .  S
C738       C1174   1.451       .  S
O739       Cu747   2.006       .  S
O739        C749   1.274       .  A
O740       Cu747   2.003       .  S
O740        C750   1.278       .  A
O741       Cu747   2.043       .  S
O741        C751   1.282       .  A
O742       Cu747   2.042       .  S
O742        C752   1.282       .  A
O743       Cu748   2.001       .  S
O743        C752   1.277       .  A
O744       Cu748   2.008       .  S
O744        C751   1.275       .  A
O745       Cu748   1.980       .  S
O745        C750   1.276       .  A
O746       Cu748   1.984       .  S
O746        C749   1.276       .  A
Cu747      Cu748   2.375       .  S
C749       C1152   1.454       .  S
C750       C1165   1.470       .  S
C751       C1145   1.448       .  S
C752       C1199   1.485       .  S
O753       Cu761   2.004       .  S
O753        C763   1.274       .  A
O754       Cu761   2.005       .  S
O755       Cu761   2.071       .  S
O755        C765   1.286       .  A
O756      Cu2041   2.031   1_455  S
O756        C766   1.280       .  A
O757      Cu2042   2.076   1_455  S
O758       Cu762   2.026       .  S
O759       Cu762   2.038       .  S
O759        C764   1.280       .  A
O760       Cu762   2.038       .  S
Cu761      O2036   2.066       .  S
Cu762      O2037   2.021       .  S
C763       C1171   1.443       .  S
C764       C1144   1.446       .  S
O767      Cu2055   2.028       .  S
O767        C777   1.279       .  A
O768       Cu775   2.055       .  S
O768        C778   1.284       .  A
O769       Cu775   2.006       .  S
O769        C779   1.275       .  A
O770       Cu775   2.009       .  S
O770        C780   1.276       .  A
O771       Cu776   2.024       .  S
O771        C780   1.278       .  A
O772       Cu776   2.021       .  S
O772        C779   1.278       .  A
O773       Cu776   2.054       .  S
O773        C778   1.282       .  A
O774      Cu2056   2.101       .  S
O774        C777   1.289       .  A
Cu775      O2047   2.052       .  S
Cu775      Cu776   2.370       .  S
Cu776      O2054   2.046       .  S
C777       C1129   1.515       .  S
C778       C1125   1.509       .  S
C779       C1150   1.439       .  S
C780       C1133   1.441       .  S
O781       Cu789   2.037       .  S
O781        C791   1.280   1_565  A
O782       Cu789   2.031       .  S
O783       Cu789   2.046       .  S
O784       Cu789   2.039       .  S
O785       Cu790   2.065       .  S
O785        C794   1.285       .  A
O786       Cu790   2.065       .  S
O786        C793   1.285       .  A
O787       Cu790   2.010       .  S
O787        C792   1.275       .  A
O788       Cu790   2.012       .  S
C791       C1148   1.449       .  S
C792       C1124   1.447       .  S
C793       C1140   1.510       .  S
C794       C1135   1.505       .  S
O795       Cu803   2.014       .  S
O795        C805   1.276       .  A
O796       Cu803   2.010       .  S
O796        C806   1.276       .  A
O797       Cu803   2.053       .  S
O797        C807   1.284       .  A
O798       Cu803   2.063       .  S
O798        C808   1.284       .  A
O799       Cu804   2.065       .  S
O799        C808   1.284       .  A
O800       Cu804   2.058       .  S
O800        C807   1.282       .  A
O801       Cu804   2.029       .  S
O801        C806   1.279       .  A
O802       Cu804   2.037       .  S
O802        C805   1.281       .  A
Cu803      Cu804   2.368       .  S
C805       C1146   1.449       .  S
C806       C1121   1.443       .  S
C807       C1126   1.508       .  S
C808       C1130   1.518       .  S
O809       Cu817   2.024   1_655  S
O809        C819   1.278       .  A
O810       Cu817   2.028   1_656  S
O810        C820   1.279       .  A
O811        C821   1.280       .  A
O812       Cu817   2.031   1_655  S
O812        C822   1.279   1_545  A
O813       Cu818   2.071       .  S
O813       C2102   1.285       .  A
O814       C2101   1.285       .  A
O815       Cu818   2.022   1_556  S
O815       C2100   1.277       .  A
O816       Cu818   2.021       .  S
O816       C2099   1.277       .  A
Cu817     Cu2098   2.369   1_455  S
Cu818     Cu2097   2.369       .  S
C819       O2096   1.276       .  A
C819       C1249   1.443       .  S
C820       O2095   1.277       .  A
C820       C1120   1.447       .  S
C821       O2094   1.286       .  A
C821       C1116   1.508       .  S
C822       O2093   1.286   1_565  A
C822       C1112   1.507       .  S
O823       Cu831   2.009       .  S
O823        C833   1.276       .  A
O824       Cu831   2.011   1_556  S
O824        C834   1.275       .  A
O825       Cu831   2.075       .  S
O825        C835   1.286       .  A
O826       Cu831   2.076       .  S
O826        C836   1.286       .  A
O827       Cu832   2.035       .  S
O827       C2116   1.280       .  A
O828       Cu832   2.036       .  S
O828       C2115   1.280       .  A
O829       Cu832   2.024   1_556  S
O829       C2114   1.278       .  A
O830       Cu832   2.022       .  S
O830       C2113   1.278       .  A
Cu831     Cu2112   2.369       .  S
Cu832     Cu2111   2.370       .  S
C833       O2110   1.279       .  A
C833       C1237   1.445       .  S
C834       O2109   1.280       .  A
C834       C1109   1.447       .  S
C835       O2108   1.279   1_554  A
C835       C1111   1.507       .  S
C836       O2107   1.279       .  A
C836       C1115   1.508       .  S
O837       Cu845   2.022       .  S
O837        C847   1.278       .  A
O838       Cu845   2.024   1_556  S
O838        C848   1.278       .  A
O839        C849   1.282       .  A
O840       Cu845   2.048       .  S
O840        C850   1.283   1_545  A
O841       Cu846   2.052   1_565  S
O841        C850   1.282       .  A
O842        C849   1.282       .  A
O843       Cu846   2.024   1_556  S
O843        C848   1.278       .  A
O844       Cu846   2.024       .  S
O844        C847   1.278       .  A
Cu845      Cu846   2.370       .  S
C848       C1107   1.446       .  S
C849       C1103   1.504       .  S
C850       C1099   1.505       .  S
O851       Cu859   2.024   1_556  S
O851        C861   1.278       .  A
O852       Cu859   2.023       .  S
O852        C862   1.278       .  A
O853       Cu859   2.039       .  S
O853        C863   1.281       .  A
O854       Cu859   2.045       .  S
O854        C864   1.281       .  A
O855       Cu860   2.056       .  S
O855        C864   1.284       .  A
O856       Cu860   2.057       .  S
O856        C863   1.283       .  A
O857       Cu860   2.010       .  S
O857        C862   1.276       .  A
O858       Cu860   2.008   1_556  S
O858        C861   1.275       .  A
Cu859      Cu860   2.371       .  S
C861       C1098   1.440       .  S
C862       C1193   1.442       .  S
C863       C1104   1.503       .  S
C864       C1100   1.506       .  S
O865        C875   1.274       .  A
O866       Cu873   1.997   1_665  S
O866        C876   1.278       .  A
O867       Cu873   2.029       .  S
O867       C2157   1.280   1_455  A
O868       Cu873   2.021   1_655  S
O868        C878   1.278       .  A
O869       Cu874   2.024       .  S
O869       C2158   1.278       .  A
O870       Cu874   2.029       .  S
O870        C877   1.281       .  A
O871       Cu874   1.995       .  S
O871       C2156   1.272       .  A
O872       C2155   1.278       .  A
Cu873     Cu2154   2.378   1_455  S
Cu874     Cu2153   2.377       .  S
C875       O2152   1.277   1_455  A
C875       C1078   1.455       .  S
C876       O2151   1.273   1_565  A
C876       C1068   1.456       .  S
C877       O2147   1.280       .  A
C878       O2149   1.279       .  A
C878       C1119   1.447       .  S
O879       Cu887   1.981   1_655  S
O879       C2169   1.276       .  A
O880       Cu887   1.997       .  S
O880       C2170   1.273       .  A
O881       Cu887   2.031       .  S
O881       C2171   1.281   1_455  A
O882       Cu887   2.033   1_655  S
O882        C892   1.280       .  A
O883       Cu888   2.012       .  S
O883       C2172   1.276       .  A
O884       Cu888   2.005       .  S
O884        C891   1.278       .  A
O885       Cu888   1.995       .  S
O885        C890   1.279       .  A
O886       Cu888   2.009       .  S
O886        C889   1.275       .  A
Cu887     Cu2168   2.377   1_455  S
Cu888     Cu2167   2.379       .  S
C889       O2159   1.276       .  A
C889       C1071   1.455       .  S
C890       O2160   1.272       .  A
C890       C1081   1.453       .  S
C891       O2161   1.281       .  A
C891       C1058   1.488       .  S
C892       O2163   1.277       .  A
C892       C1110   1.447       .  S
O893        C903   1.274   1_545  A
O894       Cu901   1.987       .  S
O894        C904   1.277       .  A
O895       Cu901   2.024       .  S
O895        C905   1.278       .  A
O896       Cu901   2.022       .  S
O896        C906   1.280       .  A
O897       Cu902   2.031       .  S
O897        C906   1.281       .  A
O898       Cu902   2.029       .  S
O898        C905   1.279       .  A
O899       Cu902   2.005       .  S
O899        C904   1.274       .  A
O900        C903   1.277       .  A
Cu901      Cu902   2.377       .  S
C903       C1031   1.456       .  S
C904       C1038   1.456       .  S
C906       C1048   1.493       .  S
O907       Cu915   2.021       .  S
O907        C917   1.278       .  A
O908       Cu915   2.017       .  S
O908        C918   1.280       .  A
O909       Cu915   2.005       .  S
O909        C919   1.274       .  A
O910       Cu915   1.990       .  S
O910        C920   1.277       .  A
O911       Cu916   2.003       .  S
O911        C920   1.274       .  A
O912       Cu916   1.992       .  S
O912        C919   1.278       .  A
O913       Cu916   2.018       .  S
O913        C918   1.279       .  A
O914       Cu916   2.010       .  S
O914        C917   1.276       .  A
Cu915      Cu916   2.379       .  S
C917       C1097   1.440       .  S
C918       C1018   1.487       .  S
C919       C1041   1.457       .  S
C920       C1028   1.455       .  S
O921       Cu929   2.016       .  S
O922       Cu929   2.020       .  S
O923       Cu929   2.008       .  S
O924      Cu2209   1.981   1_545  S
O925      Cu2210   2.009   1_455  S
O925        C934   1.274       .  A
O926       Cu930   1.982       .  S
O926        C933   1.277       .  A
O927       Cu930   2.024       .  S
O927        C932   1.280       .  A
O928       Cu930   2.030       .  S
O928        C931   1.279       .  A
Cu929      O2204   1.992       .  S
Cu930      O2205   1.992       .  S
C931       C1143   1.446       .  S
C932       C1091   1.491       .  S
C933       C1001   1.455       .  S
C934       C1008   1.457       .  S
O935       Cu943   1.992       .  S
O935        C945   1.272       .  A
O936      Cu2223   1.984       .  S
O936        C946   1.277       .  A
O937       Cu943   2.024       .  S
O937        C947   1.278       .  A
O938       Cu943   2.027       .  S
O938        C948   1.281       .  A
O939       Cu944   2.009       .  S
O939        C948   1.279       .  A
O940       Cu944   2.010       .  S
O940        C947   1.276       .  A
O941      Cu2224   1.999   1_455  S
O941        C946   1.273       .  A
O942       Cu944   2.002       .  S
O942        C945   1.279       .  A
Cu943      O2216   1.980       .  S
Cu943      Cu944   2.378       .  S
Cu944      O2221   2.016       .  S
C945        C978   1.455       .  S
C946        C988   1.451       .  S
C947       C1134   1.441       .  S
C948       C1061   1.488       .  S
O949       Cu957   2.011       .  S
O950       Cu957   1.997   1_545  S
O951       Cu957   2.032       .  S
O952       Cu957   2.027       .  S
O953       Cu958   2.027       .  S
O953        C962   1.280       .  A
O954       Cu958   2.019       .  S
O954        C961   1.278       .  A
O955       Cu958   2.010       .  S
O955        C960   1.275       .  A
O956       Cu958   2.002       .  S
O956        C959   1.279       .  A
C959        C998   1.458       .  S
C960       C1011   1.457       .  S
C961       C1123   1.447       .  S
C962       C1051   1.493       .  S
O963       Cu971   1.976       .  S
O963        C973   1.275       .  A
O964       Cu971   1.989       .  S
O964        C974   1.271       .  A
O965       Cu971   2.028       .  S
O965        C975   1.279       .  A
O966       Cu971   2.029       .  S
O966        C976   1.281       .  A
O967       Cu972   2.007       .  S
O967        C976   1.278       .  A
O968       Cu972   2.012       .  S
O968        C975   1.277       .  A
O969       Cu972   1.998       .  S
O969        C974   1.279       .  A
O970       Cu972   2.011       .  S
O970        C973   1.275       .  A
Cu971      Cu972   2.378       .  S
C973        C981   1.454       .  S
C974        C991   1.452       .  S
C975       C1122   1.444       .  S
C976       C1021   1.487       .  S
C977        C978   1.401       .  A
C977        C982   1.395       .  A
C977        H983   1.084       .  S
C978        C979   1.398       .  A
C979        C980   1.394       .  A
C979        H984   1.084       .  S
C980        C981   1.403       .  A
C980        H985   1.084       .  S
C981        C982   1.400       .  A
C982        H986   1.083       .  S
C987        C988   1.400       .  A
C987        C992   1.393       .  A
C987        H993   1.084       .  S
C988        C989   1.401       .  A
C989        C990   1.393       .  A
C989        H994   1.084       .  S
C990        C991   1.399       .  A
C990        H995   1.084       .  S
C991        C992   1.400       .  A
C992        H996   1.084       .  S
C997        C998   1.400       .  A
C997       C1002   1.395       .  A
C997       H1003   1.083       .  S
C999       C1000   1.395       .  A
C999       H1004   1.084       .  S
C1000      H1005   1.084       .  S
C1001      C1002   1.401       .  A
C1002      H1006   1.084       .  S
C1007      C1008   1.401       .  A
C1007      C1012   1.394       .  A
C1007      H1013   1.084       .  S
C1008      C1009   1.400       .  A
C1009      C1010   1.396       .  A
C1009      H1014   1.084       .  S
C1010      C1011   1.401       .  A
C1010      H1015   1.084       .  S
C1011      C1012   1.401       .  A
C1012      H1016   1.084       .  S
C1017      C1018   1.405       .  A
C1017      C1022   1.399       .  A
C1017      H1023   1.083       .  S
C1018      C1019   1.407       .  A
C1019      C1020   1.402       .  A
C1019      H1024   1.083       .  S
C1020      C1021   1.406       .  A
C1020      H1025   1.083       .  S
C1021      C1022   1.407       .  A
C1022      H1026   1.083       .  S
C1027      C1028   1.401       .  A
C1027      C1032   1.395       .  A
C1027      H1033   1.084       .  S
C1028      C1029   1.400       .  A
C1029      C1030   1.394       .  A
C1029      H1034   1.084       .  S
C1030      C1031   1.401       .  A
C1030      H1035   1.084       .  S
C1031      C1032   1.400       .  A
C1032      H1036   1.083       .  S
C1037      C1038   1.401       .  A
C1037      C1042   1.396       .  A
C1037      H1043   1.083       .  S
C1038      C1039   1.401       .  A
C1039      C1040   1.394       .  A
C1039      H1044   1.084       .  S
C1040      C1041   1.400       .  A
C1040      H1045   1.084       .  S
C1041      C1042   1.401       .  A
C1042      H1046   1.084       .  S
C1047      C1052   1.403       .  A
C1047      H1053   1.083       .  S
C1048      C1049   1.408       .  A
C1049      C1050   1.404       .  A
C1049      H1054   1.083       .  S
C1050      C1051   1.407       .  A
C1050      H1055   1.083       .  S
C1052      H1056   1.083       .  S
C1057      C1058   1.406       .  A
C1057      C1062   1.398       .  A
C1057      H1063   1.083       .  S
C1058      C2339   1.407       .  A
C1059      C2338   1.408   1_455  A
C1059      C1060   1.405       .  A
C1059      H1064   1.083       .  S
C1060      C2341   1.408   1_455  A
C1060      H1065   1.083       .  S
C1061      C2340   1.407       .  A
C1061      C1062   1.406       .  A
C1062      H1066   1.083       .  S
C1067      C2348   1.400       .  A
C1067      C1072   1.395       .  A
C1067      H1073   1.084       .  S
C1068      C2347   1.401       .  A
C1068      C1069   1.399       .  A
C1069      C1070   1.394       .  A
C1069      H1074   1.083       .  S
C1070      C2351   1.402       .  A
C1070      H1075   1.084       .  S
C1071      C2350   1.401       .  A
C1071      C1072   1.402       .  A
C1072      H1076   1.084       .  S
C1077      C2358   1.401       .  A
C1077      C1082   1.394       .  A
C1077      H1083   1.084       .  S
C1078      C2357   1.400       .  A
C1078      C1079   1.402       .  A
C1079      C1080   1.395       .  A
C1079      H1084   1.084       .  S
C1080      C2361   1.399       .  A
C1080      H1085   1.084       .  S
C1081      C2360   1.400       .  A
C1081      C1082   1.400       .  A
C1082      H1086   1.084       .  S
C1087      C1088   1.407       .  A
C1087      C1092   1.403       .  A
C1087      H1093   1.083       .  S
C1088      C1729   1.407       .  A
C1089      C1728   1.409   1_455  A
C1089      C1090   1.406       .  A
C1089      H1094   1.083   1_545  S
C1090      C1731   1.408   1_455  A
C1090      H1095   1.083   1_545  S
C1091      C1730   1.407       .  A
C1091      C1092   1.408       .  A
C1092      H1096   1.083       .  S
C1097      C1098   1.209       .  T
C1099      C1100   1.358       .  D
C1099      H1101   1.086       .  S
C1100      H1102   1.086       .  S
C1103      C1104   1.355       .  D
C1103      H1105   1.086       .  S
C1104      H1106   1.086       .  S
C1107      C1108   1.212       .  T
C1109      C1110   1.213       .  T
C1111      C1112   1.353       .  D
C1111      H2393   1.086   1_554  S
C1112      H1114   1.086       .  S
H1113      C2391   1.086       .  S
C1115      C1116   1.354       .  D
C1115      H2397   1.086       .  S
C1116      H1118   1.086       .  S
H1117      C2395   1.086       .  S
C1119      C1120   1.213       .  T
C1121      C1122   1.211       .  T
C1123      C1124   1.213       .  T
C1125      C1126   1.359       .  D
C1125      H1127   1.086       .  S
C1126      H1128   1.086       .  S
C1129      C1130   1.359       .  D
C1129      H1131   1.087       .  S
C1130      H1132   1.086       .  S
C1133      C1134   1.209       .  T
C1135      C1136   1.352       .  D
C1136      H1138   1.086       .  S
C1139      C1140   1.357       .  D
C1140      H1142   1.086       .  S
C1143      C1144   1.212       .  T
C1145      C1146   1.214       .  T
C1147      C1148   1.214       .  T
C1149      C1150   1.208       .  T
C1151      C1152   1.400       .  A
C1151      C1156   1.395       .  A
C1151      H1157   1.083       .  S
C1152      C1153   1.401       .  A
C1153      C1154   1.392       .  A
C1153      H1158   1.084       .  S
C1154      C1155   1.399       .  A
C1154      H1159   1.084       .  S
C1155      C1156   1.401       .  A
C1156      H1160   1.084       .  S
C1161      C1162   1.404       .  A
C1161      C1166   1.396       .  A
C1161      H1167   1.083       .  S
C1162      C1163   1.403       .  A
C1163      C1164   1.390       .  A
C1163      H1168   1.083       .  S
C1164      C1165   1.403       .  A
C1164      H1169   1.083       .  S
C1165      C1166   1.405       .  A
C1166      H1170   1.083       .  S
C1171      C1172   1.211       .  T
C1173      C1174   1.401       .  A
C1173      C1178   1.397       .  A
C1173      H1179   1.083       .  S
C1175      C1176   1.384       .  A
C1175      H1180   1.084       .  S
C1176      H1181   1.084       .  S
C1177      C1178   1.401   1_565  A
C1178      H1182   1.083       .  S
C1183      C1188   1.392       .  A
C1183      H1189   1.083       .  S
C1184      C1185   1.402       .  A
C1185      C1186   1.391       .  A
C1185      H1190   1.083   1_545  S
C1186      C1187   1.404       .  A
C1186      H1191   1.083   1_545  S
C1188      H1192   1.083       .  S
C1193      C1194   1.210       .  T
C1195      C1196   1.405       .  A
C1195      C1200   1.398       .  A
C1195      H1201   1.083       .  S
C1196      C1197   1.409       .  A
C1197      C1198   1.406       .  A
C1197      H1202   1.083       .  S
C1198      C1199   1.406       .  A
C1198      H1203   1.083       .  S
C1199      C1200   1.406       .  A
C1200      H1204   1.083       .  S
C1205      C1206   1.214       .  T
C1207      C1208   1.402       .  A
C1207      C1212   1.395       .  A
C1207      H1213   1.084       .  S
C1208      C1209   1.401       .  A
C1209      C1210   1.395       .  A
C1209      H1214   1.084       .  S
C1210      C1211   1.400       .  A
C1210      H1215   1.084       .  S
C1211      C1212   1.400       .  A
C1212      H1216   1.084       .  S
C1217      C1218   1.400       .  A
C1217      C1222   1.394       .  A
C1217      H1223   1.084       .  S
C1218      C1219   1.400       .  A
C1219      C1220   1.394       .  A
C1219      H1224   1.084       .  S
C1220      C1221   1.401       .  A
C1220      H1225   1.084       .  S
C1221      C1222   1.401       .  A
C1222      H1226   1.084       .  S
C1227      C1228   1.404       .  A
C1227      C1232   1.399       .  A
C1227      H1233   1.083       .  S
C1229      C1230   1.405       .  A
C1229      H1234   1.083       .  S
C1230      C1231   1.408       .  A
C1230      H1235   1.083       .  S
C1232      H1236   1.083       .  S
C1237      C1238   1.211       .  T
C1239      C1240   1.403       .  A
C1239      C1244   1.395       .  A
C1239      H1245   1.083       .  S
C1240      C2521   1.406       .  A
C1241      C2520   1.407       .  A
C1241      C1242   1.399   1_655  A
C1241      H1246   1.083   1_655  S
C1242      C2523   1.404   1_455  A
C1242      H1247   1.083       .  S
C1243      C2522   1.406       .  A
C1243      C1244   1.404       .  A
C1244      H1248   1.083       .  S
C1249      C1250   1.210       .  T
C1251      C1252   1.401       .  A
C1251      C1256   1.393       .  A
C1251      H1257   1.084       .  S
C1252      C2533   1.400       .  A
C1253      C2532   1.401       .  A
C1253      C1254   1.392       .  A
C1253      H1258   1.084       .  S
C1254      C2535   1.398       .  A
C1254      H1259   1.084       .  S
C1255      C2534   1.401       .  A
C1255      C1256   1.399       .  A
C1256      H1260   1.084       .  S
C1261      C2542   1.401       .  A
C1261      C1266   1.394       .  A
C1261      H1267   1.084       .  S
C1262      C2541   1.399       .  A
C1262      C1263   1.401       .  A
C1263      C1264   1.393       .  A
C1263      H1268   1.084       .  S
C1264      C1265   1.400       .  A
C1264      H1269   1.084       .  S
C1265      C2546   1.402       .  A
C1266      C2545   1.400       .  A
C1266      H1270   1.084       .  S
C1271      C1912   1.410       .  A
C1271      C1276   1.407       .  A
C1271      H1277   1.083       .  S
C1272      C1911   1.407       .  A
C1272      C1273   1.408       .  A
C1273      C1274   1.404       .  A
C1273      H1278   1.083       .  S
C1274      C1275   1.407       .  A
C1274      H1279   1.083       .  S
C1275      C1916   1.408       .  A
C1276      C1915   1.405       .  A
C1276      H1280   1.083       .  S
O1281     Cu1289   2.026       .  S
O1281      C1291   1.281       .  A
O1282     Cu1289   2.027       .  S
O1283     Cu1289   1.986       .  S
O1284     Cu1929   2.000       .  S
O1285     Cu1290   1.991   1_545  S
O1285      C1294   1.278   1_545  A
O1286     Cu1930   2.005       .  S
O1286      C1293   1.274       .  A
O1287     Cu1290   2.024       .  S
O1287      C1292   1.278       .  A
O1288     Cu1290   2.017       .  S
Cu1289     O1924   1.997       .  S
Cu1290     O1926   2.000       .  S
C1291      C1912   1.491       .  S
C1292      C2530   1.447       .  S
C1293      C1892   1.450       .  S
C1294      C1902   1.453   1_565  S
O1295     Cu1303   1.989       .  S
O1295      C1305   1.278       .  A
O1296     Cu1303   1.993       .  S
O1296      C1306   1.272       .  A
O1297     Cu1303   2.032       .  S
O1298     Cu1303   2.026       .  S
O1298      C1308   1.279       .  A
O1299     Cu1304   2.033       .  S
O1300     Cu1304   2.029       .  S
O1300      C1307   1.281       .  A
O1301     Cu1304   1.984       .  S
O1302     Cu1304   1.998       .  S
C1305      C1905   1.453       .  S
C1306      C1895   1.452       .  S
C1307      C1880   1.487       .  S
C1308      C1878   1.443       .  S
O1309     Cu1317   1.992       .  S
O1309      C1319   1.272       .  A
O1310     Cu1957   1.975       .  S
O1310      C1320   1.275       .  A
O1311     Cu1317   2.027       .  S
O1311      C1321   1.279       .  A
O1312     Cu1317   2.036       .  S
O1312      C1322   1.282       .  A
O1313     Cu1318   2.012       .  S
O1313      C1322   1.279       .  A
O1314     Cu1318   2.017       .  S
O1314      C1321   1.277       .  A
O1315     Cu1958   2.005       .  S
O1315      C1320   1.274       .  A
O1316     Cu1318   1.998       .  S
O1316      C1319   1.279       .  A
Cu1317     O1950   1.978       .  S
Cu1317    Cu1318   2.378       .  S
Cu1318     O1955   2.003       .  S
C1319      C1858   1.453   1_565  S
C1320      C1848   1.450       .  S
C1321      C1845   1.445       .  S
C1322      C1868   1.492       .  S
O1323     Cu1331   2.041       .  S
O1323      C1333   1.281       .  A
O1324     Cu1331   2.036       .  S
O1324      C1334   1.280       .  A
O1325     Cu1331   1.984       .  S
O1325      C1335   1.277       .  A
O1326     Cu1331   1.992       .  S
O1326      C1336   1.272       .  A
O1327     Cu1332   1.996       .  S
O1327      C1336   1.278       .  A
O1328     Cu1332   1.996       .  S
O1328      C1335   1.273       .  A
O1329     Cu1332   2.036       .  S
O1329      C1334   1.280       .  A
O1330     Cu1332   2.028       .  S
O1330      C1333   1.280       .  A
Cu1331    Cu1332   2.378       .  S
C1333      C1836   1.489       .  S
C1334      C1834   1.456       .  S
C1335      C1861   1.451       .  S
C1336      C1851   1.452       .  S
O1337     Cu1345   2.038       .  S
O1337      C1987   1.281       .  A
O1338     Cu1345   2.036       .  S
O1338      C1988   1.282       .  A
O1339     Cu1345   1.997       .  S
O1339      C1989   1.273       .  A
O1340      C1990   1.279       .  A
O1341      C1350   1.274       .  A
O1342     Cu1346   1.976       .  S
O1342      C1349   1.276       .  A
O1343     Cu1346   2.001       .  S
O1343      C1348   1.277       .  A
O1344     Cu1346   2.007       .  S
O1344      C1347   1.274       .  A
Cu1345    Cu1986   2.378       .  S
Cu1346    Cu1985   2.376       .  S
C1347      O1977   1.283       .  A
C1347      C1812   1.451       .  S
C1348      O1978   1.284       .  A
C1348      C1915   1.489       .  S
C1349      O1979   1.272       .  A
C1349      C1817   1.447       .  S
C1350      O1980   1.279       .  A
C1350      C1824   1.460       .  S
O1351     Cu1359   2.043   1_455  S
O1351      C1361   1.282       .  A
O1352     Cu1359   2.037       .  S
O1352      C1362   1.281       .  A
O1353     Cu1359   1.994       .  S
O1353      C1363   1.274       .  A
O1354      C1364   1.277       .  A
O1355      C1364   1.275       .  A
O1356     Cu1360   1.976   1_655  S
O1356      C1363   1.276       .  A
O1357     Cu1360   2.001       .  S
O1357      C1362   1.277   1_455  A
O1358     Cu1360   2.021       .  S
O1358      C1361   1.277       .  A
Cu1359    Cu1360   2.374   1_655  S
C1361      C1789   1.454       .  S
C1362      C1883   1.483       .  S
C1363      C1795   1.456       .  S
C1364      C1802   1.460       .  S
O1365     Cu1373   2.031       .  S
O1365      C1375   1.281       .  A
O1366     Cu1373   2.022       .  S
O1366      C1376   1.279       .  A
O1367     Cu1373   2.017       .  S
O1367      C1377   1.275       .  A
O1368     Cu1373   1.994       .  S
O1368      C1378   1.278       .  A
O1369     Cu1374   1.986       .  S
O1369      C2018   1.271       .  A
O1370     Cu1374   1.982       .  S
O1370      C2017   1.278       .  A
O1371     Cu1374   2.016       .  S
O1371      C2016   1.277       .  A
O1372     Cu1374   2.018       .  S
O1372      C2015   1.280       .  A
Cu1373    Cu2014   2.379       .  S
Cu1374    Cu2013   2.378       .  S
C1375      O2012   1.278       .  A
C1375      C1871   1.488       .  S
C1376      O2011   1.276       .  A
C1376      C1787   1.441       .  S
C1377      O2010   1.277       .  A
C1377      C1827   1.460       .  S
C1378      O2009   1.271       .  A
C1378      C1814   1.448       .  S
O1379     Cu1387   2.002       .  S
O1379      C1389   1.275       .  A
O1380     Cu1387   2.000       .  S
O1380      C1390   1.279       .  A
O1381     Cu1387   2.014       .  S
O1381      C1391   1.276       .  A
O1382     Cu1387   2.021       .  S
O1382      C1392   1.279       .  A
O1383     Cu1388   2.042       .  S
O1383      C1392   1.283       .  A
O1384     Cu1388   2.050       .  S
O1384      C1391   1.283       .  A
O1385     Cu1388   2.002       .  S
O1385      C1390   1.273       .  A
O1386     Cu1388   1.965       .  S
O1386      C1389   1.274       .  A
Cu1387    Cu1388   2.377       .  S
C1389      C1792   1.449       .  S
C1390      C1805   1.459       .  S
C1391      C1785   1.453       .  S
C1392      C1839   1.494       .  S
O1393     Cu1401   2.052       .  S
O1393      C1403   1.283       .  A
O1394     Cu1401   2.043       .  S
O1394      C2044   1.281       .  A
O1395     Cu1401   2.033       .  S
O1395      C1405   1.278       .  A
O1396      C1406   1.286       .  A
O1397      C2046   1.279       .  A
O1398     Cu1402   2.068       .  S
O1398      C2045   1.286       .  A
O1399     Cu1402   2.003       .  S
O1399      C1404   1.274   1_545  A
O1400     Cu1402   2.004       .  S
O1400      C2043   1.274       .  A
Cu1401    Cu2042   2.369       .  S
Cu1402    Cu2041   2.369   1_545  S
C1403      O2040   1.274       .  A
C1403      C1811   1.451       .  S
C1404      O2034   1.281       .  A
C1404      C1784   1.445       .  S
C1405      O2038   1.287       .  A
C1405      C2416   1.506       .  S
C1406      O2037   1.278       .  A
C1406      C2419   1.506       .  S
O1407      C1417   1.281       .  A
O1408     Cu1415   2.014   1_655  S
O1408      C1418   1.276       .  A
O1409     Cu1415   2.056       .  S
O1409      C1419   1.283       .  A
O1410     Cu1415   2.053       .  S
O1410      C1420   1.283       .  A
O1411     Cu1416   2.005       .  S
O1411      C1420   1.274       .  A
O1412     Cu1416   2.009       .  S
O1412      C1419   1.274       .  A
O1413     Cu1416   2.094   1_655  S
O1413      C1418   1.290       .  A
O1414      C1417   1.283       .  A
Cu1415    Cu1416   2.366       .  S
C1417      C1769   1.506       .  S
C1418      C1765   1.508       .  S
C1419      C1790   1.454       .  S
C1420      C1773   1.452       .  S
O1421     Cu1429   2.006       .  S
O1421      C1431   1.275       .  A
O1422     Cu1429   2.009       .  S
O1422      C2072   1.276       .  A
O1423     Cu1429   2.066       .  S
O1423      C2073   1.283       .  A
O1424     Cu1429   2.062       .  S
O1424      C2074   1.286       .  A
O1425     Cu1430   2.038       .  S
O1425      C1434   1.279   1_545  A
O1426     Cu1430   2.028       .  S
O1426      C1433   1.280   1_545  A
O1427     Cu1430   2.032       .  S
O1427      C1432   1.279   1_545  A
O1428     Cu1430   2.033   1_565  S
O1428      C2071   1.280       .  A
Cu1429    Cu2070   2.371       .  S
Cu1430    Cu2069   2.371   1_545  S
C1431      O2068   1.280       .  A
C1431      C1788   1.442       .  S
C1432      O2062   1.276       .  A
C1432      C1764   1.445       .  S
C1433      O2063   1.283       .  A
C1433      C1780   1.498       .  S
C1434      O2064   1.285       .  A
C1434      C1775   1.502       .  S
O1435     Cu1443   2.058       .  S
O1435      C1445   1.284       .  A
O1436     Cu1443   2.052       .  S
O1436      C1446   1.283       .  A
O1437     Cu1443   2.015       .  S
O1437      C1447   1.275       .  A
O1438     Cu1443   2.002       .  S
O1438      C1448   1.275       .  A
O1439     Cu1444   2.090       .  S
O1439      C1448   1.288       .  A
O1440     Cu1444   2.093       .  S
O1440      C1447   1.290       .  A
O1441     Cu1444   1.999       .  S
O1441      C1446   1.273       .  A
O1442     Cu1444   2.000       .  S
O1442      C1445   1.273       .  A
Cu1443    Cu1444   2.368       .  S
C1445      C1786   1.452       .  S
C1446      C1761   1.448       .  S
C1447      C1766   1.508       .  S
C1448      C1770   1.500       .  S
O1449     Cu1457   2.026       .  S
O1449      C1459   1.278       .  A
O1450     Cu1457   2.025   1_556  S
O1450      C1460   1.278       .  A
O1451     Cu2097   2.035   1_545  S
O1451      C1461   1.280       .  A
O1452     Cu1457   2.039       .  S
O1452      C1462   1.281       .  A
O1453     Cu1458   2.073       .  S
O1454     Cu2098   2.071       .  S
O1455     Cu1458   2.021   1_556  S
O1456     Cu1458   2.023       .  S
Cu1457     O2091   2.036       .  S
Cu1458     O2094   2.075       .  S
C1459      C1889   1.446       .  S
C1460      C1760   1.446       .  S
C1461      C1756   1.507       .  S
C1462      C1752   1.509       .  S
O1463     Cu1471   2.007       .  S
O1463      C1473   1.275       .  A
O1464     Cu1471   2.006   1_556  S
O1464      C1474   1.275       .  A
O1465     Cu1471   2.076       .  S
O1465      C1475   1.286       .  A
O1466     Cu1471   2.072       .  S
O1466      C1476   1.286       .  A
O1467     Cu1472   2.029       .  S
O1468     Cu1472   2.031       .  S
O1469     Cu1472   2.037   1_556  S
O1470     Cu1472   2.036       .  S
C1473      C1877   1.442       .  S
C1474      C1749   1.440       .  S
C1475      C1751   1.509       .  S
C1476      C1755   1.507       .  S
O1477     Cu1485   2.008       .  S
O1477      C1487   1.276       .  A
O1478     Cu1485   2.007   1_556  S
O1478      C1488   1.276       .  A
O1479     Cu2125   2.068   1_545  S
O1479      C1489   1.285       .  A
O1480     Cu1485   2.073       .  S
O1480      C1490   1.286       .  A
O1481     Cu1486   2.037       .  S
O1481      C1490   1.280       .  A
O1482     Cu2126   2.035   1_545  S
O1482      C1489   1.280       .  A
O1483     Cu1486   2.013   1_556  S
O1483      C1488   1.277       .  A
O1484     Cu1486   2.014       .  S
O1484      C1487   1.277       .  A
Cu1485     O2119   2.072       .  S
Cu1485    Cu1486   2.371       .  S
Cu1486     O2122   2.036       .  S
C1487      C2486   1.437       .  S
C1488      C1747   1.436       .  S
C1489      C1743   1.506       .  S
C1490      C1739   1.508       .  S
O1491     Cu1499   2.040   1_556  S
O1491      C1501   1.281       .  A
O1492     Cu1499   2.045       .  S
O1492      C1502   1.281       .  A
O1493     Cu1499   2.029       .  S
O1493      C1503   1.279       .  A
O1494     Cu1499   2.031       .  S
O1494      C1504   1.279       .  A
O1495     Cu1500   2.075       .  S
O1495      C1504   1.286       .  A
O1496     Cu1500   2.074       .  S
O1496      C1503   1.286       .  A
O1497     Cu1500   2.023       .  S
O1497      C1502   1.277       .  A
O1498     Cu1500   2.020   1_556  S
O1498      C1501   1.276       .  A
Cu1499    Cu1500   2.367       .  S
C1501      C1738   1.451       .  S
C1502      C1833   1.456       .  S
C1503      C1744   1.506       .  S
C1504      C1740   1.508       .  S
O1505     Cu2153   2.012       .  S
O1505      C1515   1.275   1_565  A
O1506     Cu1513   1.987       .  S
O1506      C1516   1.277       .  A
O1507     Cu1513   2.017       .  S
O1508     Cu1513   2.022       .  S
O1508      C1518   1.278       .  A
O1509     Cu1514   2.025       .  S
O1510     Cu1514   2.021       .  S
O1510      C1517   1.280       .  A
O1511     Cu1514   1.999       .  S
O1512     Cu2154   1.979       .  S
Cu1513     O2145   1.999       .  S
Cu1514     O2152   1.985       .  S
C1515      C1718   1.456       .  S
C1516      C1708   1.455       .  S
C1517      C2368   1.492       .  S
C1518      C1759   1.446       .  S
O1519     Cu1527   1.988       .  S
O1520     Cu1527   2.003       .  S
O1521     Cu1527   2.018       .  S
O1522     Cu1527   2.016       .  S
O1522      C1532   1.278       .  A
O1523     Cu1528   2.025       .  S
O1524     Cu1528   2.032       .  S
O1524      C1531   1.281       .  A
O1525     Cu1528   1.998       .  S
O1525      C1530   1.278   1_655  A
O1526     Cu1528   2.011       .  S
O1526      C1529   1.275       .  A
C1529      C1711   1.454       .  S
C1530      C1721   1.454       .  S
C1531      C1698   1.493       .  S
C1532      C1750   1.440       .  S
O1533     Cu2181   1.992       .  S
O1533      C1543   1.272       .  A
O1534     Cu1541   1.986   1_545  S
O1534      C1544   1.277       .  A
O1535     Cu1541   2.022       .  S
O1535      C1545   1.278       .  A
O1536     Cu1541   2.025       .  S
O1536      C1546   1.280       .  A
O1537     Cu1542   2.007       .  S
O1537      C1546   1.279       .  A
O1538     Cu1542   2.019       .  S
O1538      C1545   1.277       .  A
O1539     Cu1542   2.010       .  S
O1539      C1544   1.274   1_565  A
O1540     Cu2182   1.998       .  S
O1540      C1543   1.279       .  A
Cu1541     O2173   2.003       .  S
Cu1541    Cu1542   2.378       .  S
Cu1542     O2180   1.999       .  S
C1543      C1671   1.453       .  S
C1544      C1678   1.456       .  S
C1545      C2388   1.444       .  S
C1546      C1688   1.485       .  S
O1547     Cu1555   2.036       .  S
O1547      C1557   1.280       .  A
O1548     Cu1555   2.037       .  S
O1548      C1558   1.282       .  A
O1549     Cu1555   1.998       .  S
O1549      C1559   1.273       .  A
O1550     Cu1555   1.979       .  S
O1550      C1560   1.276       .  A
O1551     Cu1556   2.008       .  S
O1551      C1560   1.275       .  A
O1552     Cu1556   2.002       .  S
O1552      C1559   1.279       .  A
O1553     Cu1556   2.009       .  S
O1553      C1558   1.278       .  A
O1554     Cu1556   2.021       .  S
O1554      C1557   1.277       .  A
Cu1555    Cu1556   2.377       .  S
C1557      C1737   1.451       .  S
C1558      C1658   1.491       .  S
C1559      C1681   1.457       .  S
C1560      C1668   1.454       .  S
O1561     Cu1569   2.027       .  S
O1561      C2211   1.278   1_455  A
O1562     Cu1569   2.023       .  S
O1562      C2212   1.280   1_455  A
O1563     Cu1569   1.997   1_655  S
O1563      C2213   1.273       .  A
O1564      C2214   1.278       .  A
O1565      C1574   1.274       .  A
O1566     Cu1570   1.991   1_565  S
O1566      C1573   1.278       .  A
O1567     Cu1570   2.017       .  S
O1567      C1572   1.280       .  A
O1568     Cu1570   2.017       .  S
O1568      C1571   1.277   1_545  A
Cu1569    Cu2210   2.377   1_455  S
Cu1570    Cu2209   2.378   1_645  S
C1571      O2201   1.279   1_655  A
C1571      C1783   1.446       .  S
C1572      O2202   1.281   1_645  A
C1572      C1731   1.492       .  S
C1573      O2203   1.272       .  A
C1573      C1641   1.452       .  S
C1574      O2204   1.277   1_545  A
C1574      C1648   1.456       .  S
O1575     Cu1583   1.995   1_655  S
O1575      C1585   1.272       .  A
O1576      C1586   1.276       .  A
O1577     Cu1583   2.039       .  S
O1577      C1587   1.281       .  A
O1578     Cu1583   2.029       .  S
O1578      C1588   1.281   1_455  A
O1579     Cu1584   2.026       .  S
O1579      C1588   1.280       .  A
O1580     Cu1584   2.023       .  S
O1580      C1587   1.277   1_655  A
O1581      C1586   1.275       .  A
O1582     Cu1584   1.995       .  S
O1582      C1585   1.278       .  A
Cu1583    Cu1584   2.377   1_455  S
C1585      C1618   1.454       .  S
C1586      C1628   1.457       .  S
C1587      C1774   1.452       .  S
C1588      C1701   1.494       .  S
O1589     Cu1597   2.006       .  S
O1589      C2239   1.274       .  A
O1590     Cu1597   1.991       .  S
O1590      C2240   1.278       .  A
O1591     Cu1597   2.012       .  S
O1591      C2241   1.277       .  A
O1592     Cu1597   2.014       .  S
O1592      C2242   1.279       .  A
O1593     Cu1598   2.029       .  S
O1593      C1602   1.280   1_545  A
O1594     Cu1598   2.032       .  S
O1594      C1601   1.279       .  A
O1595     Cu1598   2.007       .  S
O1595      C1600   1.274       .  A
O1596     Cu1598   1.991   1_565  S
O1596      C1599   1.278       .  A
Cu1597    Cu2238   2.379       .  S
Cu1598    Cu2237   2.378   1_545  S
C1599      O2229   1.273       .  A
C1599      C1638   1.453       .  S
C1600      O2230   1.277       .  A
C1600      C1651   1.456       .  S
C1601      O2231   1.277   1_545  A
C1601      C1763   1.445       .  S
C1602      O2232   1.278       .  A
C1602      C1691   1.486       .  S
O1603     Cu1611   1.977       .  S
O1603      C1613   1.276       .  A
O1604     Cu1611   1.996       .  S
O1604      C1614   1.272       .  A
O1605     Cu1611   2.030       .  S
O1605      C1615   1.280       .  A
O1606     Cu1611   2.024       .  S
O1606      C1616   1.281       .  A
O1607     Cu1612   2.020       .  S
O1607      C1616   1.280       .  A
O1608     Cu1612   2.023       .  S
O1608      C1615   1.277       .  A
O1609     Cu1612   2.001       .  S
O1609      C1614   1.279       .  A
O1610     Cu1612   2.010       .  S
O1610      C1613   1.275       .  A
Cu1611    Cu1612   2.377       .  S
C1613      C1621   1.453       .  S
C1614      C1631   1.457       .  S
C1615      C1762   1.449       .  S
C1616      C1661   1.489       .  S
C1617      C1618   1.398       .  A
C1617      C1622   1.394       .  A
C1617      H1623   1.083       .  S
C1618      C1619   1.402       .  A
C1619      C1620   1.394       .  A
C1619      H1624   1.084       .  S
C1620      C1621   1.400       .  A
C1620      H1625   1.084       .  S
C1621      C1622   1.403       .  A
C1622      H1626   1.084       .  S
C1627      C1628   1.402       .  A
C1627      C1632   1.394       .  A
C1627      H1633   1.084       .  S
C1628      C1629   1.402       .  A
C1629      C1630   1.397       .  A
C1629      H1634   1.083       .  S
C1630      C1631   1.399       .  A
C1630      H1635   1.083       .  S
C1631      C1632   1.401       .  A
C1632      H1636   1.084       .  S
C1637      C1638   1.399       .  A
C1637      C1642   1.393       .  A
C1637      H1643   1.084       .  S
C1638      C2279   1.401       .  A
C1639      C2278   1.401       .  A
C1639      C1640   1.394       .  A
C1639      H1644   1.084       .  S
C1640      C2281   1.399       .  A
C1640      H1645   1.084       .  S
C1641      C2280   1.399       .  A
C1641      C1642   1.401       .  A
C1642      H1646   1.084       .  S
C1647      C1648   1.400       .  A
C1647      C1652   1.394       .  A
C1647      H1653   1.084       .  S
C1648      C1649   1.401       .  A
C1649      C1650   1.396       .  A
C1649      H1654   1.083       .  S
C1650      C1651   1.401       .  A
C1650      H1655   1.084       .  S
C1651      C1652   1.401       .  A
C1652      H1656   1.084       .  S
C1657      C1658   1.406       .  A
C1657      C1662   1.403       .  A
C1657      H1663   1.083       .  S
C1658      C1659   1.409       .  A
C1659      C1660   1.401       .  A
C1659      H1664   1.083       .  S
C1660      C1661   1.405       .  A
C1660      H1665   1.083       .  S
C1661      C1662   1.408       .  A
C1662      H1666   1.083       .  S
C1667      C1668   1.401       .  A
C1667      C1672   1.394       .  A
C1667      H1673   1.084       .  S
C1668      C1669   1.402       .  A
C1669      C1670   1.394       .  A
C1669      H1674   1.084       .  S
C1670      C1671   1.399       .  A
C1670      H1675   1.084       .  S
C1671      C1672   1.400       .  A
C1672      H1676   1.084       .  S
C1677      C1678   1.402       .  A
C1677      C1682   1.393       .  A
C1677      H1683   1.084       .  S
C1678      C1679   1.401       .  A
C1679      C1680   1.396       .  A
C1679      H1684   1.083       .  S
C1680      C1681   1.401       .  A
C1680      H1685   1.083       .  S
C1681      C1682   1.400       .  A
C1682      H1686   1.084       .  S
C1687      C2328   1.407       .  A
C1687      C1692   1.400       .  A
C1687      H1693   1.083       .  S
C1688      C2327   1.404       .  A
C1688      C1689   1.408   1_565  A
C1689      C1690   1.405       .  A
C1689      H1694   1.083       .  S
C1690      C1691   1.408   1_545  A
C1690      H1695   1.083       .  S
C1691      C2332   1.406       .  A
C1692      C2331   1.406       .  A
C1692      H1696   1.083       .  S
C1697      C1698   1.408       .  A
C1697      C1702   1.405       .  A
C1697      H1703   1.083       .  S
C1699      C1700   1.402       .  A
C1699      H1704   1.083       .  S
C1700      H1705   1.083       .  S
C1701      C1702   1.409       .  A
C1702      H1706   1.083       .  S
C1707      C1712   1.394       .  A
C1707      H1713   1.084       .  S
C1708      C1709   1.401       .  A
C1709      C1710   1.395       .  A
C1709      H1714   1.084       .  S
C1710      H1715   1.084       .  S
C1711      C1712   1.400       .  A
C1712      H1716   1.084       .  S
C1717      C1722   1.394       .  A
C1717      H1723   1.084       .  S
C1718      C1719   1.402       .  A
C1719      C1720   1.394       .  A
C1719      H1724   1.084       .  S
C1720      H1725   1.084       .  S
C1721      C1722   1.401       .  A
C1722      H1726   1.084       .  S
C1727      C1728   1.406       .  A
C1727      C1732   1.400       .  A
C1727      H1733   1.083       .  S
C1728      C2157   1.492       .  S
C1729      C1730   1.401       .  A
C1729      H1734   1.083       .  S
C1730      H1735   1.083       .  S
C1731      C1732   1.407       .  A
C1732      H1736   1.083       .  S
C1737      C1738   1.215       .  T
C1739      C1740   1.354       .  D
C1739      H1741   1.086       .  S
C1740      H1742   1.086       .  S
C1743      C1744   1.353       .  D
C1743      H1745   1.086       .  S
C1744      H1746   1.086       .  S
C1747      C1748   1.206       .  T
C1748      C2185   1.436       .  S
C1749      C1750   1.209       .  T
C1751      C1752   1.355       .  D
C1752      H1754   1.086       .  S
C1755      C1756   1.354       .  D
C1756      H1758   1.086       .  S
C1759      C1760   1.212       .  T
C1761      C1762   1.214       .  T
C1763      C1764   1.212   1_545  T
C1765      C1766   1.350       .  D
C1765      H1767   1.086       .  S
C1766      H1768   1.086       .  S
C1769      C1770   1.352       .  D
C1769      H1771   1.086       .  S
C1770      H1772   1.087       .  S
C1773      C1774   1.216       .  T
C1775      C1776   1.360   1_565  D
C1775      H2417   1.086       .  S
C1776      C2045   1.504       .  S
C1776      H1778   1.086       .  S
H1777      C2415   1.086       .  S
C1779      C2046   1.504       .  S
C1779      C1780   1.356       .  D
C1779      H2421   1.086       .  S
C1780      H1782   1.086   1_565  S
H1781      C2419   1.085       .  S
C1783      C1784   1.212       .  T
C1785      C1786   1.217       .  T
C1787      C1788   1.210       .  T
C1789      C1790   1.217       .  T
C1791      C1792   1.401       .  A
C1791      C1796   1.398       .  A
C1791      H1797   1.083       .  S
C1792      C1793   1.398       .  A
C1793      C1794   1.384       .  A
C1793      H1798   1.084       .  S
C1794      C1795   1.400       .  A
C1794      H1799   1.084       .  S
C1795      C1796   1.402       .  A
C1796      H1800   1.083       .  S
C1801      C1802   1.402       .  A
C1801      C1806   1.397       .  A
C1801      H1807   1.084       .  S
C1802      C1803   1.404       .  A
C1803      C1804   1.397       .  A
C1803      H1808   1.084       .  S
C1804      C1805   1.400       .  A
C1804      H1809   1.084       .  S
C1805      C1806   1.402       .  A
C1806      H1810   1.084       .  S
C1811      C1812   1.216       .  T
C1813      C1814   1.400       .  A
C1813      C1818   1.391       .  A
C1813      H1819   1.084       .  S
C1814      C2455   1.398       .  A
C1815      C2454   1.398       .  A
C1815      C1816   1.389       .  A
C1815      H1820   1.084       .  S
C1816      C2457   1.400       .  A
C1816      H1821   1.084       .  S
C1817      C2456   1.401       .  A
C1817      C1818   1.399       .  A
C1818      H1822   1.084       .  S
C1823      C2464   1.401       .  A
C1823      C1828   1.397       .  A
C1823      H1829   1.084       .  S
C1824      C2463   1.402       .  A
C1824      C1825   1.401       .  A
C1825      C1826   1.397       .  A
C1825      H1830   1.084       .  S
C1826      C1827   1.403       .  A
C1826      H1831   1.084       .  S
C1827      C2468   1.402       .  A
C1828      C2467   1.403       .  A
C1828      H1832   1.084       .  S
C1833      C1834   1.218       .  T
C1835      C1836   1.406       .  A
C1835      C1840   1.405       .  A
C1835      H1841   1.083       .  S
C1836      C1837   1.405       .  A
C1837      C1838   1.407       .  A
C1837      H1842   1.083       .  S
C1838      C1839   1.410       .  A
C1838      H1843   1.083       .  S
C1839      C1840   1.407       .  A
C1840      H1844   1.083       .  S
C1845      C1846   1.211       .  T
C1846      C2127   1.444       .  S
C1847      C1848   1.400       .  A
C1847      C1852   1.392       .  A
C1847      H1853   1.084       .  S
C1848      C1849   1.401       .  A
C1849      C1850   1.394       .  A
C1849      H1854   1.084       .  S
C1850      C1851   1.400       .  A
C1850      H1855   1.084       .  S
C1851      C1852   1.399       .  A
C1852      H1856   1.084       .  S
C1857      C1858   1.399       .  A
C1857      C1862   1.393       .  A
C1857      H1863   1.084       .  S
C1858      C1859   1.401       .  A
C1859      C1860   1.394       .  A
C1859      H1864   1.084       .  S
C1860      C1861   1.400       .  A
C1860      H1865   1.084       .  S
C1861      C1862   1.401       .  A
C1862      H1866   1.084       .  S
C1867      C1868   1.407       .  A
C1867      C1872   1.405       .  A
C1867      H1873   1.083       .  S
C1868      C2509   1.407       .  A
C1869      C2508   1.406       .  A
C1869      C1870   1.396       .  A
C1869      H1874   1.083       .  S
C1870      C1871   1.406       .  A
C1870      H1875   1.083       .  S
C1871      C2512   1.408       .  A
C1872      C2511   1.409       .  A
C1872      H1876   1.083       .  S
C1877      C1878   1.210       .  T
C1879      C1880   1.406   1_455  A
C1879      C1884   1.397       .  A
C1879      H1885   1.083       .  S
C1881      C1882   1.406       .  A
C1881      H1886   1.083       .  S
C1882      H1887   1.083       .  S
C1883      C1884   1.404   1_655  A
C1884      H1888   1.083       .  S
C1889      C1890   1.212       .  T
C1890      C1932   1.446       .  S
C1891      C1892   1.401       .  A
C1891      C1896   1.394       .  A
C1891      H1897   1.084       .  S
C1893      C1894   1.394       .  A
C1893      H1898   1.084       .  S
C1894      H1899   1.084       .  S
C1895      C1896   1.400       .  A
C1896      H1900   1.084       .  S
C1901      C1906   1.395       .  A
C1901      H1907   1.083       .  S
C1902      C1903   1.400       .  A
C1903      C1904   1.394       .  A
C1903      H1908   1.084       .  S
C1904      C1905   1.400       .  A
C1904      H1909   1.084       .  S
C1906      H1910   1.084       .  S
C1911      C1916   1.401       .  A
C1911      H1917   1.083       .  S
C1912      C1913   1.405       .  A
C1913      C1914   1.400       .  A
C1913      H1918   1.083       .  S
C1914      C1915   1.407       .  A
C1914      H1919   1.083       .  S
C1916      H1920   1.083       .  S
O1921     Cu1929   2.010       .  S
O1921      C1931   1.279       .  A
O1922     Cu1929   2.010       .  S
O1923     Cu1929   1.983       .  S
O1925     Cu1930   2.000       .  S
O1925      C1934   1.279       .  A
O1926      C1933   1.273       .  A
O1927     Cu1930   2.024       .  S
O1927      C1932   1.278       .  A
O1928     Cu1930   2.018       .  S
C1931      C2552   1.483       .  S
C1933      C2532   1.448       .  S
C1934      C2542   1.455       .  S
O1935     Cu1943   1.980       .  S
O1935      C1945   1.276       .  A
O1936     Cu1943   1.985       .  S
O1936      C1946   1.271       .  A
O1937     Cu1943   2.025       .  S
O1938     Cu1943   2.020       .  S
O1938      C1948   1.278       .  A
O1939     Cu1944   2.030       .  S
O1940     Cu1944   2.031       .  S
O1940      C1947   1.281       .  A
O1941     Cu1944   1.992       .  S
O1942     Cu1944   2.004       .  S
C1945      C2545   1.453       .  S
C1946      C2535   1.451       .  S
C1947      C2520   1.491       .  S
C1948      C2518   1.438       .  S
O1949     Cu1957   1.987       .  S
O1949      C1959   1.271       .  A
O1950      C1960   1.276       .  A
O1951     Cu1957   2.019       .  S
O1951      C1961   1.278       .  A
O1952     Cu1957   2.028       .  S
O1952      C1962   1.281       .  A
O1953     Cu1958   2.003       .  S
O1953      C1962   1.278       .  A
O1954     Cu1958   2.007       .  S
O1954      C1961   1.276       .  A
O1955      C1960   1.274       .  A
O1956     Cu1958   1.997       .  S
O1956      C1959   1.279       .  A
Cu1957    Cu1958   2.380       .  S
C1959      C2498   1.451       .  S
C1960      C2488   1.451       .  S
C1961      C2485   1.437       .  S
C1962      C2508   1.486       .  S
O1963     Cu1971   2.038       .  S
O1963      C1973   1.281       .  A
O1964     Cu1971   2.024       .  S
O1964      C1974   1.278       .  A
O1965     Cu1971   1.980       .  S
O1965      C1975   1.276       .  A
O1966     Cu1971   1.991       .  S
O1966      C1976   1.272       .  A
O1967     Cu1972   1.995       .  S
O1967      C1976   1.278       .  A
O1968     Cu1972   1.992       .  S
O1968      C1975   1.272       .  A
O1969     Cu1972   2.030       .  S
O1969      C1974   1.279       .  A
O1970     Cu1972   2.023       .  S
O1970      C1973   1.280       .  A
Cu1971    Cu1972   2.378       .  S
C1973      C2476   1.489       .  S
C1974      C2474   1.449       .  S
C1975      C2501   1.449       .  S
C1976      C2491   1.453       .  S
O1977     Cu1985   2.052       .  S
O1978     Cu1985   2.050       .  S
O1979     Cu1985   1.996       .  S
O1981      C1990   1.273       .  A
O1982     Cu1986   1.979       .  S
O1982      C1989   1.276       .  A
O1983     Cu1986   1.996       .  S
O1983      C1988   1.276       .  A
O1984     Cu1986   2.007       .  S
O1984      C1987   1.275       .  A
C1987      C2452   1.446       .  S
C1988      C2555   1.481       .  S
C1989      C2457   1.449       .  S
C1990      C2464   1.459       .  S
O1991     Cu1999   2.041       .  S
O1991      C2001   1.281       .  A
O1992     Cu1999   2.036       .  S
O1992      C2002   1.281       .  A
O1993     Cu1999   2.004       .  S
O1993      C2003   1.275       .  A
O1994      C2004   1.278       .  A
O1995      C2004   1.275       .  A
O1996     Cu2000   1.982       .  S
O1996      C2003   1.277       .  A
O1997     Cu2000   2.009       .  S
O1997      C2002   1.278       .  A
O1998     Cu2000   2.024       .  S
O1998      C2001   1.277       .  A
Cu1999    Cu2000   2.373       .  S
C2001      C2429   1.454       .  S
C2002      C2523   1.483       .  S
C2003      C2435   1.462       .  S
C2004      C2442   1.460       .  S
O2005     Cu2013   2.028       .  S
O2005      C2015   1.281       .  A
O2006     Cu2013   2.026       .  S
O2006      C2016   1.279       .  A
O2007     Cu2013   2.014       .  S
O2007      C2017   1.275       .  A
O2008     Cu2013   1.989       .  S
O2008      C2018   1.277       .  A
O2009     Cu2014   1.984       .  S
O2010     Cu2014   1.980       .  S
O2011     Cu2014   2.011       .  S
O2012     Cu2014   2.006       .  S
C2015      C2511   1.492       .  S
C2016      C2427   1.444       .  S
C2017      C2467   1.460       .  S
C2018      C2454   1.447   1_565  S
O2019     Cu2027   2.009       .  S
O2019      C2029   1.276       .  A
O2020     Cu2027   2.002       .  S
O2020      C2030   1.280       .  A
O2021     Cu2027   2.021       .  S
O2021      C2031   1.277       .  A
O2022     Cu2027   2.023       .  S
O2022      C2032   1.279       .  A
O2023     Cu2028   2.036       .  S
O2023      C2032   1.282       .  A
O2024     Cu2028   2.044       .  S
O2024      C2031   1.282       .  A
O2025     Cu2028   2.002       .  S
O2025      C2030   1.272       .  A
O2026     Cu2028   1.966       .  S
O2026      C2029   1.274       .  A
Cu2027    Cu2028   2.377       .  S
C2029      C2432   1.452       .  S
C2030      C2445   1.459       .  S
C2031      C2425   1.454       .  S
C2032      C2479   1.488       .  S
O2033     Cu2041   2.042       .  S
O2033      C2043   1.281   1_565  A
O2034     Cu2041   2.039       .  S
O2035     Cu2041   2.028       .  S
O2035      C2045   1.278   1_565  A
O2036      C2046   1.285       .  A
O2038     Cu2042   2.070       .  S
O2039     Cu2042   1.999       .  S
O2039      C2044   1.274       .  A
O2040     Cu2042   2.006       .  S
C2043      C2451   1.446       .  S
C2044      C2424   1.445       .  S
O2047      C2057   1.282       .  A
O2048     Cu2055   2.020   1_655  S
O2048      C2058   1.277       .  A
O2049     Cu2055   2.050       .  S
O2049      C2059   1.282   1_455  A
O2050     Cu2055   2.045       .  S
O2050      C2060   1.282       .  A
O2051     Cu2056   2.007       .  S
O2051      C2060   1.274       .  A
O2052     Cu2056   2.014   1_655  S
O2052      C2059   1.275       .  A
O2053     Cu2056   2.093   1_655  S
O2053      C2058   1.289       .  A
O2054      C2057   1.283       .  A
Cu2055    Cu2056   2.366       .  S
C2057      C2409   1.507       .  S
C2058      C2405   1.510       .  S
C2059      C2430   1.454       .  S
C2060      C2413   1.449       .  S
O2061     Cu2069   2.009       .  S
O2061      C2071   1.275       .  A
O2062     Cu2069   2.011       .  S
O2063     Cu2069   2.061       .  S
O2064     Cu2069   2.057       .  S
O2065     Cu2070   2.037       .  S
O2065      C2074   1.279       .  A
O2066     Cu2070   2.028       .  S
O2066      C2073   1.280       .  A
O2067     Cu2070   2.030       .  S
O2067      C2072   1.279       .  A
O2068     Cu2070   2.030       .  S
C2071      C2428   1.444       .  S
C2072      C2404   1.443       .  S
C2073      C2420   1.500       .  S
C2074      C2415   1.505       .  S
O2075     Cu2083   2.057       .  S
O2075      C2085   1.284       .  A
O2076     Cu2083   2.052       .  S
O2076      C2086   1.283       .  A
O2077     Cu2083   2.021       .  S
O2077      C2087   1.277       .  A
O2078     Cu2083   2.008       .  S
O2078      C2088   1.276       .  A
O2079     Cu2084   2.088       .  S
O2079      C2088   1.288       .  A
O2080     Cu2084   2.093       .  S
O2080      C2087   1.289       .  A
O2081     Cu2084   2.004       .  S
O2081      C2086   1.274       .  A
O2082     Cu2084   2.006       .  S
O2082      C2085   1.274       .  A
Cu2083    Cu2084   2.367       .  S
C2085      C2426   1.454       .  S
C2086      C2401   1.450       .  S
C2087      C2406   1.510       .  S
C2088      C2410   1.502       .  S
O2089     Cu2097   2.029       .  S
O2089      C2099   1.279       .  A
O2090     Cu2097   2.030   1_556  S
O2090      C2100   1.279       .  A
O2091      C2101   1.280       .  A
O2092     Cu2097   2.034       .  S
O2092      C2102   1.280       .  A
O2093     Cu2098   2.073       .  S
O2095     Cu2098   2.020   1_556  S
O2096     Cu2098   2.014       .  S
C2099      C2529   1.448       .  S
C2100      C2400   1.449       .  S
C2101      C2396   1.506       .  S
C2102      C2392   1.506       .  S
O2103     Cu2111   2.006       .  S
O2103      C2113   1.275       .  A
O2104     Cu2111   2.008   1_556  S
O2104      C2114   1.275       .  A
O2105     Cu2111   2.069       .  S
O2105      C2115   1.285       .  A
O2106     Cu2111   2.068       .  S
O2106      C2116   1.285       .  A
O2107     Cu2112   2.032       .  S
O2108     Cu2112   2.031   1_556  S
O2109     Cu2112   2.035   1_556  S
O2110     Cu2112   2.033       .  S
C2113      C2517   1.438       .  S
C2114      C2389   1.441       .  S
C2115      C2391   1.507       .  S
C2116      C2395   1.506       .  S
O2117     Cu2125   2.018       .  S
O2117      C2127   1.277       .  A
O2118     Cu2125   2.019   1_556  S
O2118      C2128   1.277       .  A
O2119      C2129   1.285       .  A
O2120     Cu2125   2.071       .  S
O2120      C2130   1.285       .  A
O2121     Cu2126   2.036       .  S
O2121      C2130   1.280       .  A
O2122      C2129   1.280       .  A
O2123     Cu2126   2.024   1_556  S
O2123      C2128   1.278       .  A
O2124     Cu2126   2.023       .  S
O2124      C2127   1.278       .  A
Cu2125    Cu2126   2.369       .  S
C2128      C2387   1.445       .  S
C2129      C2383   1.508       .  S
C2130      C2379   1.507       .  S
O2131     Cu2139   2.034   1_556  S
O2131      C2141   1.280       .  A
O2132     Cu2139   2.035       .  S
O2132      C2142   1.279       .  A
O2133     Cu2139   2.041       .  S
O2133      C2143   1.281       .  A
O2134     Cu2139   2.039       .  S
O2134      C2144   1.281       .  A
O2135     Cu2140   2.067       .  S
O2135      C2144   1.285       .  A
O2136     Cu2140   2.070       .  S
O2136      C2143   1.285       .  A
O2137     Cu2140   2.020       .  S
O2137      C2142   1.277       .  A
O2138     Cu2140   2.021   1_556  S
O2138      C2141   1.277       .  A
Cu2139    Cu2140   2.368       .  S
C2141      C2378   1.450       .  S
C2142      C2473   1.449       .  S
C2143      C2384   1.509       .  S
C2144      C2380   1.508       .  S
O2145      C2155   1.273       .  A
O2146     Cu2153   2.001       .  S
O2146      C2156   1.279       .  A
O2147     Cu2153   2.021       .  S
O2148     Cu2153   2.028       .  S
O2148      C2158   1.279       .  A
O2149     Cu2154   2.028       .  S
O2150     Cu2154   2.020       .  S
O2150      C2157   1.280       .  A
O2151     Cu2154   1.998       .  S
C2155      C2358   1.453       .  S
C2156      C2348   1.456       .  S
C2158      C2399   1.448       .  S
O2159     Cu2167   1.980       .  S
O2160     Cu2167   1.995       .  S
O2161     Cu2167   2.030       .  S
O2162     Cu2167   2.024       .  S
O2162      C2172   1.279       .  A
O2163     Cu2168   2.017       .  S
O2164     Cu2168   2.023       .  S
O2164      C2171   1.280       .  A
O2165     Cu2168   1.998       .  S
O2165      C2170   1.279   1_655  A
O2166     Cu2168   2.007       .  S
O2166      C2169   1.274       .  A
C2169      C2351   1.454       .  S
C2170      C2361   1.456       .  S
C2171      C2338   1.494       .  S
C2172      C2390   1.441       .  S
O2173      C2183   1.274       .  A
O2174     Cu2181   1.980       .  S
O2174      C2184   1.276       .  A
O2175     Cu2181   2.014       .  S
O2175      C2185   1.277       .  A
O2176     Cu2181   2.021       .  S
O2176      C2186   1.280       .  A
O2177     Cu2182   2.008       .  S
O2177      C2186   1.278       .  A
O2178     Cu2182   2.008       .  S
O2178      C2185   1.276       .  A
O2179     Cu2182   2.010       .  S
O2179      C2184   1.275       .  A
O2180      C2183   1.278       .  A
Cu2181    Cu2182   2.379       .  S
C2183      C2311   1.458       .  S
C2184      C2318   1.454       .  S
C2186      C2328   1.486       .  S
O2187     Cu2195   2.034       .  S
O2187      C2197   1.280       .  A
O2188     Cu2195   2.041       .  S
O2188      C2198   1.283       .  A
O2189     Cu2195   1.990       .  S
O2189      C2199   1.271       .  A
O2190     Cu2195   1.974       .  S
O2190      C2200   1.275       .  A
O2191     Cu2196   2.019       .  S
O2191      C2200   1.276       .  A
O2192     Cu2196   2.007       .  S
O2192      C2199   1.280       .  A
O2193     Cu2196   2.019       .  S
O2193      C2198   1.279       .  A
O2194     Cu2196   2.025       .  S
O2194      C2197   1.278       .  A
Cu2195    Cu2196   2.376       .  S
C2197      C2377   1.450       .  S
C2198      C2298   1.496       .  S
C2199      C2321   1.456       .  S
C2200      C2308   1.457       .  S
O2201     Cu2209   2.030       .  S
O2202     Cu2209   2.033       .  S
O2203     Cu2209   1.995   1_655  S
O2205      C2214   1.272       .  A
O2206     Cu2210   1.995       .  S
O2206      C2213   1.278       .  A
O2207     Cu2210   2.026       .  S
O2207      C2212   1.280       .  A
O2208     Cu2210   2.019       .  S
O2208      C2211   1.278       .  A
C2211      C2423   1.446       .  S
C2212      C2371   1.492       .  S
C2213      C2281   1.454       .  S
C2214      C2288   1.452       .  S
O2215     Cu2223   2.004   1_655  S
O2215      C2225   1.274       .  A
O2216      C2226   1.276       .  A
O2217     Cu2223   2.027       .  S
O2217      C2227   1.279   1_455  A
O2218     Cu2223   2.024       .  S
O2218      C2228   1.280   1_455  A
O2219     Cu2224   2.030       .  S
O2219      C2228   1.281       .  A
O2220     Cu2224   2.028       .  S
O2220      C2227   1.279       .  A
O2221      C2226   1.275       .  A
O2222     Cu2224   1.989       .  S
O2222      C2225   1.277       .  A
Cu2223    Cu2224   2.377   1_455  S
C2225      C2258   1.456       .  S
C2226      C2268   1.457       .  S
C2227      C2414   1.449   1_655  S
C2228      C2341   1.493       .  S
O2229     Cu2237   1.997       .  S
O2230     Cu2237   1.988   1_545  S
O2231     Cu2237   2.011       .  S
O2232     Cu2237   2.003       .  S
O2233     Cu2238   2.021       .  S
O2233      C2242   1.280       .  A
O2234     Cu2238   2.027       .  S
O2234      C2241   1.279       .  A
O2235     Cu2238   1.992       .  S
O2235      C2240   1.272       .  A
O2236     Cu2238   1.974       .  S
O2236      C2239   1.275       .  A
C2239      C2278   1.451       .  S
C2240      C2291   1.451       .  S
C2241      C2403   1.443       .  S
C2242      C2331   1.485       .  S
O2243     Cu2251   1.989       .  S
O2243      C2253   1.277       .  A
O2244     Cu2251   2.003       .  S
O2244      C2254   1.273       .  A
O2245     Cu2251   2.028       .  S
O2245      C2255   1.279       .  A
O2246     Cu2251   2.029       .  S
O2246      C2256   1.281       .  A
O2247     Cu2252   2.033       .  S
O2247      C2256   1.281       .  A
O2248     Cu2252   2.030       .  S
O2248      C2255   1.279       .  A
O2249     Cu2252   1.999       .  S
O2249      C2254   1.278       .  A
O2250     Cu2252   2.008       .  S
O2250      C2253   1.274       .  A
Cu2251    Cu2252   2.376       .  S
C2253      C2261   1.457       .  S
C2254      C2271   1.458       .  S
C2255      C2402   1.451       .  S
C2256      C2301   1.496       .  S
C2257      C2258   1.399       .  A
C2257      C2262   1.394       .  A
C2257      H2263   1.084       .  S
C2258      C2259   1.403       .  A
C2259      C2260   1.396       .  A
C2259      H2264   1.084       .  S
C2260      C2261   1.399       .  A
C2260      H2265   1.083       .  S
C2261      C2262   1.403       .  A
C2262      H2266   1.084       .  S
C2267      C2268   1.401       .  A
C2267      C2272   1.395       .  A
C2267      H2273   1.084       .  S
C2268      C2269   1.402       .  A
C2269      C2270   1.396       .  A
C2269      H2274   1.084       .  S
C2270      C2271   1.400       .  A
C2270      H2275   1.084       .  S
C2271      C2272   1.401       .  A
C2272      H2276   1.084       .  S
C2277      C2278   1.401       .  A
C2277      C2282   1.393       .  A
C2277      H2283   1.084       .  S
C2279      C2280   1.393       .  A
C2279      H2284   1.084       .  S
C2280      H2285   1.084       .  S
C2281      C2282   1.400       .  A
C2282      H2286   1.084       .  S
C2287      C2288   1.400       .  A
C2287      C2292   1.394       .  A
C2287      H2293   1.084       .  S
C2288      C2289   1.400       .  A
C2289      C2290   1.392       .  A
C2289      H2294   1.084       .  S
C2290      C2291   1.400       .  A
C2290      H2295   1.084       .  S
C2291      C2292   1.400       .  A
C2292      H2296   1.084       .  S
C2297      C2298   1.407       .  A
C2297      C2302   1.406       .  A
C2297      H2303   1.083       .  S
C2298      C2299   1.409       .  A
C2299      C2300   1.404       .  A
C2299      H2304   1.083       .  S
C2300      C2301   1.408       .  A
C2300      H2305   1.083       .  S
C2301      C2302   1.409       .  A
C2302      H2306   1.083       .  S
C2307      C2308   1.402       .  A
C2307      C2312   1.396       .  A
C2307      H2313   1.084       .  S
C2308      C2309   1.402       .  A
C2309      C2310   1.395       .  A
C2309      H2314   1.084       .  S
C2310      C2311   1.400       .  A
C2310      H2315   1.084       .  S
C2311      C2312   1.400       .  A
C2312      H2316   1.083       .  S
C2317      C2318   1.402       .  A
C2317      C2322   1.394       .  A
C2317      H2323   1.084       .  S
C2318      C2319   1.401       .  A
C2319      C2320   1.395       .  A
C2319      H2324   1.084       .  S
C2320      C2321   1.400       .  A
C2320      H2325   1.084       .  S
C2321      C2322   1.399       .  A
C2322      H2326   1.084       .  S
C2327      C2332   1.395       .  A
C2327      H2333   1.083       .  S
C2328      C2329   1.406       .  A
C2329      C2330   1.401       .  A
C2329      H2334   1.083       .  S
C2330      C2331   1.406       .  A
C2330      H2335   1.083       .  S
C2332      H2336   1.083       .  S
C2337      C2338   1.408       .  A
C2337      C2342   1.402       .  A
C2337      H2343   1.083       .  S
C2339      C2340   1.404       .  A
C2339      H2344   1.083       .  S
C2340      H2345   1.083       .  S
C2341      C2342   1.406       .  A
C2342      H2346   1.083       .  S
C2347      C2352   1.394       .  A
C2347      H2353   1.084       .  S
C2348      C2349   1.400       .  A
C2349      C2350   1.394       .  A
C2349      H2354   1.084       .  S
C2350      H2355   1.084       .  S
C2351      C2352   1.400       .  A
C2352      H2356   1.084       .  S
C2357      C2362   1.395       .  A
C2357      H2363   1.084       .  S
C2358      C2359   1.400       .  A
C2359      C2360   1.393       .  A
C2359      H2364   1.084       .  S
C2360      H2365   1.084       .  S
C2361      C2362   1.401       .  A
C2362      H2366   1.084       .  S
C2367      C2368   1.408       .  A
C2367      C2372   1.403       .  A
C2367      H2373   1.083       .  S
C2369      C2370   1.402       .  A
C2369      H2374   1.083       .  S
C2370      H2375   1.083       .  S
C2371      C2372   1.407       .  A
C2372      H2376   1.083       .  S
C2377      C2378   1.215       .  T
C2379      C2380   1.355       .  D
C2379      H2381   1.086       .  S
C2380      H2382   1.086       .  S
C2383      C2384   1.355       .  D
C2383      H2385   1.086       .  S
C2384      H2386   1.086       .  S
C2387      C2388   1.211       .  T
C2389      C2390   1.209       .  T
C2391      C2392   1.354       .  D
C2392      H2394   1.086       .  S
C2395      C2396   1.354       .  D
C2396      H2398   1.086       .  S
C2399      C2400   1.214       .  T
C2401      C2402   1.215       .  T
C2403      C2404   1.211       .  T
C2405      C2406   1.351       .  D
C2405      H2407   1.086       .  S
C2406      H2408   1.086       .  S
C2409      C2410   1.354       .  D
C2409      H2411   1.086       .  S
C2410      H2412   1.087       .  S
C2413      C2414   1.214       .  T
C2415      C2416   1.361       .  D
C2416      H2418   1.086       .  S
C2419      C2420   1.357       .  D
C2420      H2422   1.086       .  S
C2423      C2424   1.212       .  T
C2425      C2426   1.217       .  T
C2427      C2428   1.211       .  T
C2429      C2430   1.217       .  T
C2431      C2432   1.402       .  A
C2431      C2436   1.400       .  A
C2431      H2437   1.083       .  S
C2432      C2433   1.399       .  A
C2433      C2434   1.386       .  A
C2433      H2438   1.084       .  S
C2434      C2435   1.401       .  A
C2434      H2439   1.084       .  S
C2435      C2436   1.404       .  A
C2436      H2440   1.083       .  S
C2441      C2442   1.402       .  A
C2441      C2446   1.397       .  A
C2441      H2447   1.084       .  S
C2442      C2443   1.404       .  A
C2443      C2444   1.397       .  A
C2443      H2448   1.084       .  S
C2444      C2445   1.400       .  A
C2444      H2449   1.083       .  S
C2445      C2446   1.402       .  A
C2446      H2450   1.084       .  S
C2451      C2452   1.212       .  T
C2453      C2454   1.401       .  A
C2453      C2458   1.394       .  A
C2453      H2459   1.084       .  S
C2455      C2456   1.393       .  A
C2455      H2460   1.084       .  S
C2456      H2461   1.084       .  S
C2457      C2458   1.399       .  A
C2458      H2462   1.083       .  S
C2463      C2468   1.397       .  A
C2463      H2469   1.084       .  S
C2464      C2465   1.401       .  A
C2465      C2466   1.397       .  A
C2465      H2470   1.084       .  S
C2466      C2467   1.402       .  A
C2466      H2471   1.084       .  S
C2468      H2472   1.084       .  S
C2473      C2474   1.214       .  T
C2475      C2476   1.406       .  A
C2475      C2480   1.402       .  A
C2475      H2481   1.083       .  S
C2476      C2477   1.407       .  A
C2477      C2478   1.408       .  A
C2477      H2482   1.083       .  S
C2478      C2479   1.408       .  A
C2478      H2483   1.083       .  S
C2479      C2480   1.405       .  A
C2480      H2484   1.083       .  S
C2485      C2486   1.207       .  T
C2487      C2488   1.401       .  A
C2487      C2492   1.392       .  A
C2487      H2493   1.084       .  S
C2488      C2489   1.400       .  A
C2489      C2490   1.394       .  A
C2489      H2494   1.084       .  S
C2490      C2491   1.401       .  A
C2490      H2495   1.084       .  S
C2491      C2492   1.398       .  A
C2492      H2496   1.084       .  S
C2497      C2498   1.399       .  A
C2497      C2502   1.394       .  A
C2497      H2503   1.084       .  S
C2498      C2499   1.399       .  A
C2499      C2500   1.391       .  A
C2499      H2504   1.084       .  S
C2500      C2501   1.400       .  A
C2500      H2505   1.084       .  S
C2501      C2502   1.401       .  A
C2502      H2506   1.084       .  S
C2507      C2508   1.407       .  A
C2507      C2512   1.405       .  A
C2507      H2513   1.083       .  S
C2509      C2510   1.400       .  A
C2509      H2514   1.083       .  S
C2510      C2511   1.406       .  A
C2510      H2515   1.083       .  S
C2512      H2516   1.083       .  S
C2517      C2518   1.208       .  T
C2519      C2520   1.409       .  A
C2519      C2524   1.406       .  A
C2519      H2525   1.083       .  S
C2521      C2522   1.404       .  A
C2521      H2526   1.083       .  S
C2522      H2527   1.083       .  S
C2523      C2524   1.406       .  A
C2524      H2528   1.083       .  S
C2529      C2530   1.213       .  T
C2531      C2532   1.400       .  A
C2531      C2536   1.393       .  A
C2531      H2537   1.084       .  S
C2533      C2534   1.394       .  A
C2533      H2538   1.084       .  S
C2534      H2539   1.084       .  S
C2535      C2536   1.399       .  A
C2536      H2540   1.083       .  S
C2541      C2546   1.395       .  A
C2541      H2547   1.083       .  S
C2542      C2543   1.399       .  A
C2543      C2544   1.395       .  A
C2543      H2548   1.084       .  S
C2544      C2545   1.402       .  A
C2544      H2549   1.084       .  S
C2546      H2550   1.084       .  S
C2551      C2556   1.400       .  A
C2551      H2557   1.083       .  S
C2552      C2553   1.404       .  A
C2553      C2554   1.396       .  A
C2553      H2558   1.083       .  S
C2554      C2555   1.405       .  A
C2554      H2559   1.083       .  S
C2556      H2560   1.083       .  S
