geometry optimzed in LAMMPS
_audit_creation_date              2020-11-30 
_audit_creation_method            'lammps2cif' 
_symmetry_space_group_name_H-M    'P1' 
_symmetry_Int_Tables_number       1 
_symmetry_cell_setting            triclinic 
loop_ 
_symmetry_equiv_pos_as_xyz 
  x,y,z 
_cell_length_a                    29.3657203 
_cell_length_b                    29.406142743811586 
_cell_length_c                    30.683668254841372 
_cell_angle_alpha                 91.85652328312119 
_cell_angle_beta                  89.38769615872685 
_cell_angle_gamma                 119.90894189805174 
loop_ 
_atom_site_label 
_atom_site_type_symbol 
_atom_site_fract_x 
_atom_site_fract_y 
_atom_site_fract_z 
_atom_site_charge 
C1          C  0.27063668  0.25806583  0.48098860     0.03000
C2          C  0.31076329  0.27008965  0.01631985    -0.13100
C3          C  0.36138363  0.31363400  0.01447914     0.00500
C4          C  0.38191556  0.33531304  0.97428570    -0.11700
C5          C  0.34392221  0.32401977  0.43826313     0.03000
C6          C  0.29142808  0.28292806  0.44090874    -0.11100
H7          H  0.29735135  0.25130606  0.04721734     0.08600
H8          H  0.42158306  0.36838781  0.97264686     0.06100
H9          H  0.26731136  0.27116967  0.41178549     0.06000
C10         C  0.78518049  0.76666555  0.99017691     0.03000
C11         C  0.76686305  0.73685300  0.02809016    -0.13100
C12         C  0.72330589  0.68590421  0.02632404     0.00500
C13         C  0.69983277  0.66311037  0.98601104    -0.11700
C14         C  0.71282364  0.69088200  0.44581866     0.03000
C15         C  0.75657324  0.74173811  0.44803378    -0.11100
H16         H  0.78570809  0.75349398  0.05927459     0.08600
H17         H  0.66586300  0.62394762  0.98453431     0.06100
H18         H  0.76973932  0.76403451  0.41860092     0.06000
O19         O  0.55542395  0.57297975  0.27777279    -0.73100
O20         O  0.46772305  0.47158586  0.18198660    -0.74000
O21         O  0.46134808  0.47413242  0.27459287    -0.62700
O22         O  0.56132801  0.57034913  0.18533040    -0.71100
O23         O  0.60812119  0.53051289  0.18841123    -0.70600
O24         O  0.50753911  0.43371362  0.27808625    -0.61900
O25         O  0.51405823  0.43125476  0.18505932    -0.74400
O26         O  0.60202076  0.53293181  0.28127327    -0.73200
Cu27       Cu  0.50985455  0.52357295  0.22979194     1.04600
Cu28       Cu  0.55954473  0.48068125  0.23338301     1.04300
C29         C  0.59256214  0.56892005  0.29502128     0.93100
C30         C  0.47711245  0.43569048  0.16784694     0.92300
C31         C  0.46855347  0.43866256  0.29077224     0.84400
C32         C  0.60046797  0.56587668  0.17250920     0.90700
C33         C  0.76656506  0.00872930  0.99977190     0.03000
C34         C  0.73709258  0.00098127  0.03841546    -0.13100
C35         C  0.69154372  0.00535880  0.03891497     0.00500
C36         C  0.67263769  0.01283736  0.99972897    -0.11700
C37         C  0.69569265  0.01437360  0.46275505     0.03000
C38         C  0.74310867  0.01369634  0.46202620    -0.11100
H39         H  0.74949728  0.99187681  0.06839844     0.08600
H40         H  0.63613912  0.01367604  0.99949203     0.06100
H41         H  0.76615150  0.02426430  0.43247064     0.06000
C42         C  0.27101083  0.03472231  0.50530065     0.03000
C43         C  0.30420831  0.05102456  0.46851067    -0.13100
C44         C  0.35115441  0.04927982  0.46762360     0.00500
C45         C  0.36839824  0.03728539  0.50563445    -0.11700
C46         C  0.34511524  0.03260690  0.04253366     0.03000
C47         C  0.29586280  0.02919782  0.04203842    -0.11100
H48         H  0.29334235  0.06395253  0.43985844     0.08600
H49         H  0.40499675  0.03666537  0.50562440     0.06100
H50         H  0.27241122  0.01686893  0.07128276     0.06000
O51         O  0.59323001  0.06852016  0.29840162    -0.73100
O52         O  0.49780993  0.07114834  0.20662617    -0.74000
O53         O  0.50279897  0.08004397  0.29938228    -0.62700
O54         O  0.58849033  0.06013067  0.20515289    -0.71100
O55         O  0.53754237  0.97387876  0.20764424    -0.70600
O56         O  0.45203550  0.99366070  0.30223573    -0.61900
O57         O  0.44740204  0.98478013  0.20963963    -0.74400
O58         O  0.54251983  0.98222840  0.30068696    -0.73200
Cu59       Cu  0.54739857  0.07297751  0.25231117     1.04600
Cu60       Cu  0.49318946  0.98068428  0.25526878     1.04300
C61         C  0.58268370  0.02465338  0.31423946     0.93100
C62         C  0.45782520  0.02831041  0.19334423     0.92300
C63         C  0.46360326  0.03990525  0.31548861     0.84400
C64         C  0.57585386  0.01401939  0.19064497     0.90700
C65         C  0.98842581  0.25245692  0.50581788     0.03000
C66         C  0.99575873  0.28095944  0.46771617    -0.13100
C67         C  0.99165709  0.32651093  0.46888432     0.00500
C68         C  0.98410694  0.34615250  0.50877010    -0.11700
C69         C  0.97775651  0.31769319  0.04570698     0.03000
C70         C  0.98078227  0.27160476  0.04321717    -0.11100
H71         H  0.00452292  0.26788001  0.43701336     0.08600
H72         H  0.98209630  0.38201231  0.50973338     0.06100
H73         H  0.97679596  0.25124728  0.07300796     0.06000
C74         C  0.99966160  0.76868240  0.02140465     0.03000
C75         C  0.99597566  0.74183996  0.05969737    -0.13100
C76         C  0.98124092  0.68840493  0.05749043     0.00500
C77         C  0.97235575  0.66233109  0.01678715    -0.11700
C78         C  0.98133325  0.68811514  0.47633386     0.03000
C79         C  0.98883695  0.73904508  0.47819296    -0.11100
H80         H  0.00531835  0.76244782  0.09109815     0.08600
H81         H  0.96441345  0.62213100  0.01481085     0.06100
H82         H  0.99102659  0.75807977  0.44800539     0.06000
O83         O  0.02920994  0.47765521  0.30587207    -0.73100
O84         O  0.02757449  0.57215101  0.21548211    -0.74000
O85         O  0.03184446  0.57554207  0.30815608    -0.62700
O86         O  0.02353375  0.47375219  0.21296654    -0.71100
O87         O  0.93686029  0.43357709  0.21618361    -0.70600
O88         O  0.94501049  0.53485804  0.31025080    -0.61900
O89         O  0.94096435  0.53208616  0.21751278    -0.74400
O90         O  0.94245877  0.43691044  0.30887364    -0.73200
Cu91       Cu  0.03103484  0.52617870  0.26053134     1.04600
Cu92       Cu  0.93834281  0.48292403  0.26331608     1.04300
C93         C  0.98615589  0.44232345  0.32197176     0.93100
C94         C  0.98449173  0.56738342  0.20180405     0.92300
C95         C  0.98959262  0.57093736  0.32459429     0.84400
C96         C  0.97848961  0.43786127  0.19895973     0.90700
C97         C  0.06813071  0.07168470  0.00203143     0.02200
C98         C  0.07040356  0.02491187  0.00633543     0.02200
C99         C  0.02326201  0.97563777  0.00911664     0.02200
C100        C  0.97392734  0.97317838  0.00415960     0.02200
C101        C  0.97145821  0.02021619  0.00416746     0.02200
C102        C  0.01871885  0.06978824  0.00420725     0.02200
C103        C  0.99351156  0.84427443  0.05534393    -0.20400
C104        C  0.01489517  0.82540177  0.02307661    -0.07000
C105        C  0.04447580  0.85885752  0.48849372     0.13900
C106        C  0.04549030  0.90658519  0.48442557    -0.20500
C107        C  0.02468425  0.92614537  0.01730572    -0.07000
C108        C  0.00027531  0.89507215  0.05400098     0.13900
C109        C  0.98121519  0.91416487  0.09236976    -0.23800
H110        H  0.97049003  0.81908645  0.08142626     0.15200
H111        H  0.06457713  0.92936166  0.45634487     0.15200
C112        C  0.08148411  0.84958259  0.46005860    -0.23800
H113        H  0.00196569  0.91390812  0.12231341     0.05400
H114        H  0.93483517  0.88451032  0.59468151     0.08600
H115        H  0.98873014  0.95473132  0.08887775     0.08600
H116        H  0.06952668  0.84568759  0.42532206     0.08600
H117        H  0.08440904  0.81456645  0.97019846     0.08600
H118        H  0.12187143  0.88356379  0.46403891     0.05400
C119        C  0.02880793  0.65698538  0.42852682    -0.20400
C120        C  0.98503309  0.66353075  0.43462547    -0.07000
C121        C  0.94464879  0.64302189  0.40300121     0.13900
C122        C  0.94830312  0.61476504  0.36657914    -0.20500
C123        C  0.99135164  0.60643057  0.36105524    -0.07000
C124        C  0.03262983  0.62873926  0.39232338     0.13900
C125        C  0.07962498  0.62099008  0.38931274    -0.23800
H126        H  0.05962612  0.67297446  0.45311771     0.15200
H127        H  0.91670409  0.59810370  0.34271754     0.15200
C128        C  0.89686870  0.64907067  0.40853150    -0.23800
H129        H  0.10647851  0.63925844  0.41775937     0.05400
H130        H  0.10251097  0.63947616  0.35963022     0.08600
H131        H  0.06653052  0.57842147  0.38836284     0.08600
H132        H  0.90867915  0.69129278  0.40940813     0.08600
H133        H  0.87672737  0.63131290  0.43942236     0.08600
H134        H  0.86836089  0.62948365  0.38129128     0.05400
C135        C  0.02844733  0.67447611  0.11709866    -0.20400
C136        C  0.98054199  0.66065937  0.09707775    -0.07000
C137        C  0.93378670  0.61839002  0.11289474     0.13900
C138        C  0.93633538  0.58979569  0.14768874    -0.20500
C139        C  0.98464314  0.60192089  0.16693966    -0.07000
C140        C  0.03143553  0.64575231  0.15155754     0.13900
C141        C  0.08501731  0.66291445  0.17047715    -0.23800
H142        H  0.06408379  0.70705645  0.10457449     0.15200
H143        H  0.90023514  0.55696866  0.15919260     0.15200
C144        C  0.88117228  0.60365941  0.09325091    -0.23800
H145        H  0.11619237  0.69892528  0.15523879     0.05400
H146        H  0.09538718  0.63174007  0.16462897     0.08600
H147        H  0.08545075  0.67183332  0.20595614     0.08600
H148        H  0.87958351  0.59124625  0.05851462     0.08600
H149        H  0.87487285  0.63788996  0.09551153     0.08600
H150        H  0.84839836  0.57073145  0.11040404     0.05400
C151        C  0.02277554  0.19851148  0.03707913    -0.20400
C152        C  0.99290335  0.20368810  0.50483276    -0.07000
C153        C  0.97377878  0.16567461  0.46991559     0.13900
C154        C  0.98622465  0.12524165  0.46873870    -0.20500
C155        C  0.01541375  0.11899999  0.00347336    -0.07000
C156        C  0.02840597  0.15415715  0.03998247     0.13900
C157        C  0.04495653  0.14525456  0.08373841    -0.23800
H158        H  0.03704107  0.22689385  0.06408236     0.15200
H159        H  0.97343827  0.09776186  0.44103597     0.15200
C160        C  0.93626639  0.16310657  0.43544318    -0.23800
H161        H  0.01691893  0.14332423  0.10907777     0.05400
H162        H  0.07797390  0.17363973  0.59508453     0.08600
H163        H  0.04648376  0.10840290  0.08440582     0.08600
H164        H  0.95586276  0.17191932  0.40321274     0.08600
H165        H  0.92430272  0.18798365  0.93834526     0.08600
H166        H  0.90151388  0.12291469  0.43369005     0.05400
C167        C  0.93125295  0.34615891  0.09781267    -0.20400
C168        C  0.97574487  0.34201992  0.08815100    -0.07000
C169        C  0.01992097  0.36687624  0.11615917     0.13900
C170        C  0.01886406  0.39628089  0.15276426    -0.20500
C171        C  0.97486360  0.40192368  0.16203183    -0.07000
C172        C  0.93000590  0.37564245  0.13426543     0.13900
C173        C  0.88138972  0.38004275  0.14116761    -0.23800
H174        H  0.89781551  0.32740827  0.07577235     0.15200
H175        H  0.05320190  0.41594407  0.17374757     0.15200
C176        C  0.06917949  0.36460871  0.10634505    -0.23800
H177        H  0.85157375  0.35869186  0.11511673     0.05400
H178        H  0.89175570  0.42187933  0.14091256     0.08600
H179        H  0.86282395  0.36268373  0.17260846     0.08600
H180        H  0.08424180  0.38071749  0.07373825     0.08600
H181        H  0.06067921  0.32339192  0.10677461     0.08600
H182        H  0.10066328  0.38780521  0.13074954     0.05400
C183        C  0.94849279  0.33151445  0.40167459    -0.20400
C184        C  0.99330680  0.35328576  0.42839217    -0.07000
C185        C  0.03689962  0.40209417  0.41821400     0.13900
C186        C  0.03373833  0.42933154  0.38267254    -0.20500
C187        C  0.98777925  0.40915209  0.35704084    -0.07000
C188        C  0.94503202  0.35867930  0.36610316     0.13900
C189        C  0.89589432  0.33264301  0.33841367    -0.23800
H190        H  0.91537036  0.29367449  0.40957756     0.15200
H191        H  0.06701392  0.46742442  0.37571503     0.15200
C192        C  0.08673023  0.42535345  0.44489882    -0.23800
H193        H  0.86851487  0.29196349  0.34856290     0.05400
H194        H  0.90627918  0.33057367  0.30377917     0.08600
H195        H  0.87458788  0.35486929  0.34154675     0.08600
H196        H  0.10215988  0.39769979  0.44448856     0.08600
H197        H  0.07886353  0.43276043  0.47908173     0.08600
H198        H  0.11759943  0.46316313  0.43187747     0.05400
C199        C  0.14076437  0.02147542  0.46668270    -0.20400
C200        C  0.12290683  0.02825601  0.00674937    -0.07000
C201        C  0.15252107  0.03893923  0.04531838     0.13900
C202        C  0.20341101  0.04574619  0.04302829    -0.20500
C203        C  0.21779009  0.03076644  0.50456262    -0.07000
C204        C  0.18646649  0.01766322  0.46604030     0.13900
C205        C  0.19579261  0.99379188  0.42502704    -0.23800
H206        H  0.11864984  0.01434348  0.43673601     0.15200
H207        H  0.22706487  0.05809180  0.07243295     0.15200
C208        C  0.12992249  0.04156269  0.08901131    -0.23800
H209        H  0.15812080  0.95994017  0.41315041     0.05400
H210        H  0.22814046  0.98206762  0.93044727     0.08600
H211        H  0.21159957  0.02322354  0.39912350     0.08600
H212        H  0.09448534  0.00316967  0.09513883     0.08600
H213        H  0.11317831  0.06810091  0.58985932     0.08600
H214        H  0.15836813  0.05041176  0.11595943     0.05400
C215        C  0.46011440  0.08433670  0.38451292    -0.20400
C216        C  0.43276250  0.04705039  0.35094057    -0.07000
C217        C  0.37736541  0.01592386  0.35350323     0.13900
C218        C  0.35172400  0.01946841  0.39124604    -0.20500
C219        C  0.37953239  0.05439068  0.42603570    -0.07000
C220        C  0.43421816  0.08881776  0.42176042     0.13900
C221        C  0.46642167  0.13080459  0.45563376    -0.23800
H222        H  0.50236286  0.10927844  0.38230614     0.15200
H223        H  0.30966650  0.99362079  0.39396630     0.15200
C224        C  0.34370954  0.97933636  0.31699375    -0.23800
H225        H  0.48711859  0.16952614  0.44006579     0.05400
H226        H  0.49603277  0.12254352  0.46991399     0.08600
H227        H  0.44229915  0.13394365  0.48230362     0.08600
H228        H  0.36592508  0.98251405  0.28679039     0.08600
H229        H  0.31293611  0.98900791  0.30837395     0.08600
H230        H  0.32431925  0.93819268  0.32778835     0.05400
C231        C  0.40495091  0.98599051  0.12672404    -0.20400
C232        C  0.42467570  0.02820635  0.15729439    -0.07000
C233        C  0.41341844  0.06923361  0.15186811     0.13900
C234        C  0.38465926  0.06787641  0.11509120    -0.20500
C235        C  0.36751737  0.02703181  0.08350115    -0.07000
C236        C  0.37677032  0.98498459  0.08981292     0.13900
C237        C  0.35766649  0.93862704  0.05829312    -0.23800
H238        H  0.41288582  0.95411755  0.13091404     0.15200
H239        H  0.37716289  0.09988779  0.11004852     0.15200
C240        C  0.43092073  0.11415486  0.18472281    -0.23800
H241        H  0.33235748  0.90194494  0.07577159     0.05400
H242        H  0.39183787  0.93677267  0.04450508     0.08600
H243        H  0.33422298  0.94029007  0.03096087     0.08600
H244        H  0.47441196  0.13810336  0.18544606     0.08600
H245        H  0.41624743  0.09869986  0.21757586     0.08600
H246        H  0.41560562  0.14060807  0.17655939     0.05400
C247        C  0.85004089  0.02908030  0.03771418    -0.20400
C248        C  0.81770353  0.00847910  0.00043960    -0.07000
C249        C  0.83159013  0.98411935  0.46323611     0.13900
C250        C  0.88357098  0.99391846  0.46412863    -0.20500
C251        C  0.91881996  0.01720913  0.00363134    -0.07000
C252        C  0.89815817  0.03014268  0.04076190     0.13900
C253        C  0.92366818  0.04182757  0.08498930    -0.23800
H254        H  0.83740624  0.04347113  0.06553286     0.15200
H255        H  0.89895503  0.98323026  0.43582864     0.15200
C256        C  0.79801756  0.95234315  0.42476424    -0.23800
H257        H  0.89614495  0.01254520  0.10815023     0.05400
H258        H  0.92562442  0.07411336  0.59642528     0.08600
H259        H  0.96008960  0.03944933  0.08513696     0.08600
H260        H  0.81191067  0.97578827  0.39492556     0.08600
H261        H  0.75898533  0.94275319  0.93293176     0.08600
H262        H  0.80124369  0.91645625  0.41978711     0.05400
C263        C  0.65186126  0.97926495  0.39162731    -0.20400
C264        C  0.67310704  0.02104229  0.42231856    -0.07000
C265        C  0.66826622  0.06568868  0.41570373     0.13900
C266        C  0.64016202  0.06648450  0.37924729    -0.22900
C267        C  0.61606619  0.02330291  0.34964851    -0.07000
C268        C  0.62308804  0.97951275  0.35551220     0.13900
C269        C  0.60093273  0.93298310  0.32392967    -0.23800
H270        H  0.65616338  0.94531292  0.39693616     0.15200
H271        H  0.63546605  0.10032330  0.37472051     0.15200
C272        C  0.69282393  0.11242430  0.44698190    -0.23800
H273        H  0.61387255  0.90460540  0.33202381     0.05400
H274        H  0.61443543  0.94636348  0.29039076     0.08600
H275        H  0.55738728  0.91161652  0.32501449     0.08600
H276        H  0.73580220  0.12773420  0.44911807     0.08600
H277        H  0.67541074  0.10104493  0.47984429     0.08600
H278        H  0.68654222  0.14461449  0.43626579     0.05400
C279        C  0.65901876  0.04535381  0.14912167    -0.20400
C280        C  0.60558802  0.00777841  0.15342902    -0.07000
C281        C  0.58118300  0.96787837  0.12043673     0.13900
C282        C  0.61086625  0.96664420  0.08454762    -0.20500
C283        C  0.66413431  0.00442695  0.08027627    -0.07000
C284        C  0.68840797  0.04446364  0.11294368     0.13900
C285        C  0.74446110  0.08811270  0.10862870    -0.23800
H286        H  0.67773221  0.07637167  0.17387363     0.15200
H287        H  0.59204077  0.93682397  0.05889870     0.15200
C288        C  0.52328569  0.92828872  0.12128856    -0.23800
H289        H  0.75619801  0.11768686  0.13586449     0.05400
H290        H  0.74916960  0.10851655  0.07765884     0.08600
H291        H  0.77152473  0.07206435  0.10894875     0.08600
H292        H  0.50024057  0.94888694  0.12302922     0.08600
H293        H  0.51423882  0.90296186  0.14980035     0.08600
H294        H  0.51043994  0.90225769  0.09156978     0.05400
C295        C  0.86638462  0.83533620  0.45772572    -0.20400
C296        C  0.83085081  0.82169605  0.99255655    -0.07000
C297        C  0.83778041  0.85805760  0.02707130     0.13900
C298        C  0.88562263  0.90539670  0.03123744    -0.20500
C299        C  0.92447074  0.92096325  0.99909772    -0.07000
C300        C  0.91110936  0.88570264  0.45919878     0.13900
C301        C  0.94508541  0.90495708  0.41926129    -0.23800
H302        H  0.86078874  0.80926050  0.43002054     0.15200
H303        H  0.89180870  0.93144895  0.05909491     0.15200
C304        C  0.79480196  0.85050940  0.05839337    -0.23800
H305        H  0.93017248  0.87497386  0.39220988     0.05400
H306        H  0.98900780  0.91701977  0.92872389     0.08600
H307        H  0.94558965  0.94053269  0.40765433     0.08600
H308        H  0.80552075  0.84569738  0.09182876     0.08600
H309        H  0.75476491  0.81218432  0.54993131     0.08600
H310        H  0.78999486  0.88568373  0.05847999     0.05400
C311        C  0.67468704  0.61135450  0.33954732    -0.20400
C312        C  0.62485695  0.60540390  0.33138213    -0.07000
C313        C  0.60645324  0.63210863  0.35949763     0.13900
C314        C  0.63735331  0.66193532  0.39546738    -0.20500
C315        C  0.68607498  0.66617872  0.40401363    -0.07000
C316        C  0.70535294  0.64124737  0.37551764     0.13900
C317        C  0.75742131  0.64460746  0.38405428    -0.23800
H318        H  0.68942837  0.59161980  0.31814724     0.15200
H319        H  0.62277151  0.68087894  0.41795607     0.15200
C320        C  0.55358754  0.62790069  0.35333363    -0.23800
H321        H  0.76647379  0.62230456  0.35888778     0.05400
H322        H  0.75677643  0.62820377  0.41630005     0.08600
H323        H  0.78934044  0.68621891  0.38390917     0.08600
H324        H  0.52205464  0.58614500  0.35408553     0.08600
H325        H  0.55248086  0.64484308  0.32182859     0.08600
H326        H  0.54525109  0.64973718  0.37946158     0.05400
C327        C  0.67150474  0.67747506  0.09271513    -0.20400
C328        C  0.69816805  0.65829361  0.06682374    -0.07000
C329        C  0.69641190  0.61127465  0.07788275     0.13900
C330        C  0.66574381  0.58311331  0.11340189    -0.20500
C331        C  0.63613253  0.60042582  0.13798498    -0.07000
C332        C  0.64036868  0.64928668  0.12798652     0.13900
C333        C  0.61261357  0.67252383  0.15401544    -0.23800
H334        H  0.67350724  0.71393329  0.08415016     0.15200
H335        H  0.66366620  0.54640737  0.12106761     0.15200
C336        C  0.72709781  0.59099020  0.05236180    -0.23800
H337        H  0.62363873  0.71242729  0.14326660     0.05400
H338        H  0.62331357  0.67587693  0.18904214     0.08600
H339        H  0.56946084  0.64772881  0.14972856     0.08600
H340        H  0.76947207  0.62109813  0.05300394     0.08600
H341        H  0.71310782  0.58187850  0.01804825     0.08600
H342        H  0.72276959  0.55461711  0.06621718     0.05400
C343        C  0.14503605  0.15607032  0.02898787    -0.20400
C344        C  0.11812743  0.12200335  0.99379965    -0.07000
C345        C  0.13741644  0.13558787  0.45231533     0.13900
C346        C  0.18812649  0.17989913  0.44871954    -0.20500
C347        C  0.21981544  0.21168369  0.98378629    -0.07000
C348        C  0.19180672  0.20335879  0.02349738     0.13900
C349        C  0.20711582  0.24432203  0.05983180    -0.23800
H350        H  0.12963132  0.14651853  0.06125162     0.15200
H351        H  0.20707125  0.18706699  0.41729745     0.15200
C352        C  0.11058248  0.10464252  0.41124595    -0.23800
H353        H  0.17280218  0.24898668  0.06841548     0.05400
H354        H  0.22982078  0.28213942  0.55374865     0.08600
H355        H  0.21924731  0.23179060  0.08918363     0.08600
H356        H  0.07129584  0.07038985  0.41735446     0.08600
H357        H  0.11017572  0.12807700  0.88822012     0.08600
H358        H  0.13526603  0.09035657  0.39502883     0.05400
C359        C  0.40213924  0.42270551  0.34852120    -0.20400
C360        C  0.43229918  0.40482163  0.32545921    -0.07000
C361        C  0.42777449  0.35630733  0.33707330     0.13900
C362        C  0.39573621  0.32901808  0.37238936    -0.20500
C363        C  0.36803175  0.34858390  0.39643918    -0.07000
C364        C  0.37053317  0.39544591  0.38392068     0.13900
C365        C  0.34086548  0.41737495  0.40871529    -0.23800
H366        H  0.40468571  0.45934131  0.33993075     0.15200
H367        H  0.39381019  0.29310226  0.38243120     0.15200
C368        C  0.45626799  0.33264995  0.31277926    -0.23800
H369        H  0.34657175  0.45409921  0.39448452     0.05400
H370        H  0.35469635  0.42633882  0.44307899     0.08600
H371        H  0.29821824  0.38820358  0.40795907     0.08600
H372        H  0.49932112  0.35792618  0.31739767     0.08600
H373        H  0.44613946  0.32807522  0.27753716     0.08600
H374        H  0.44533474  0.29325025  0.32473065     0.05400
C375        C  0.41451715  0.32388009  0.08103753    -0.20400
C376        C  0.38906740  0.34270907  0.05490591    -0.07000
C377        C  0.39020896  0.38992012  0.06725002     0.13900
C378        C  0.41850757  0.41833748  0.10443253    -0.20500
C379        C  0.44590929  0.40103970  0.13016155    -0.07000
C380        C  0.44304132  0.35240843  0.11859019     0.13900
C381        C  0.46891178  0.32964956  0.14565654    -0.23800
H382        H  0.41261065  0.28711296  0.07164523     0.15200
H383        H  0.41985517  0.45505058  0.11291905     0.15200
C384        C  0.36107316  0.41032240  0.04138903    -0.23800
H385        H  0.45982673  0.29015437  0.13303382     0.05400
H386        H  0.45465678  0.32556659  0.17976359     0.08600
H387        H  0.51222651  0.35530784  0.14502088     0.08600
H388        H  0.31875823  0.38023265  0.03928169     0.08600
H389        H  0.37743825  0.41986011  0.00805104     0.08600
H390        H  0.36430405  0.44657244  0.05669261     0.05400
C391        C  0.27666941  0.25368227  0.97971174     0.03000
C392        C  0.30495093  0.27515879  0.51753841    -0.13100
C393        C  0.35497666  0.31979124  0.51599463     0.00500
C394        C  0.37470879  0.34310470  0.47611980    -0.11700
C395        C  0.35080399  0.31699709  0.93662511     0.03000
C396        C  0.29777975  0.27760184  0.93950794    -0.11100
H397        H  0.29249401  0.25535840  0.54808460     0.08600
H398        H  0.41386844  0.37699083  0.47468931     0.06100
H399        H  0.27350096  0.26631516  0.91049477     0.06000
C400        C  0.78242479  0.76391498  0.48819131     0.03000
C401        C  0.76436512  0.73327055  0.52562258    -0.13100
C402        C  0.71900390  0.68363261  0.52384333     0.00500
C403        C  0.69354506  0.66268189  0.48388783    -0.11700
C404        C  0.71885789  0.69090185  0.94766814     0.03000
C405        C  0.76072017  0.74288504  0.94983862    -0.11100
H406        H  0.78449616  0.74858021  0.55657297     0.08600
H407        H  0.65822274  0.62447163  0.48244268     0.06100
H408        H  0.77374163  0.76466568  0.92014668     0.06000
O409        O  0.56096096  0.57238972  0.77992509    -0.73100
O410        O  0.46952875  0.47274827  0.68465148    -0.74000
O411        O  0.46677624  0.47324815  0.77734348    -0.62700
O412        O  0.56329884  0.57106164  0.68711274    -0.71100
O413        O  0.61007913  0.53099339  0.68746771    -0.70600
O414        O  0.51354767  0.43334185  0.77714918    -0.61900
O415        O  0.51596309  0.43244914  0.68418234    -0.74400
O416        O  0.60787506  0.53266039  0.78066139    -0.73200
Cu417      Cu  0.51358961  0.52374948  0.73230209     1.04600
Cu418      Cu  0.56350460  0.48099362  0.73246694     1.04300
C419        C  0.59878227  0.56844246  0.79584559     0.93100
C420        C  0.47835738  0.43719316  0.66866277     0.92300
C421        C  0.47476220  0.43739728  0.79159933     0.84400
C422        C  0.60158276  0.56615957  0.67251162     0.90700
C423        C  0.76053974  0.99946918  0.49910813     0.03000
C424        C  0.73045163  0.98843286  0.53755584    -0.13100
C425        C  0.68555474  0.99365697  0.53944372     0.00500
C426        C  0.66743565  0.00488241  0.50158986    -0.11700
C427        C  0.70081818  0.02034820  0.96100201     0.03000
C428        C  0.74854514  0.02023469  0.96147246    -0.11100
H429        H  0.74253661  0.97720620  0.56660964     0.08600
H430        H  0.63156399  0.00691409  0.50248261     0.06100
H431        H  0.77136171  0.02902944  0.93183264     0.06000
C432        C  0.27699654  0.04066678  0.00421840     0.03000
C433        C  0.31013241  0.05727075  0.96732642    -0.13100
C434        C  0.35753427  0.05612251  0.96635148     0.00500
C435        C  0.37457049  0.04372904  0.00432343    -0.11700
C436        C  0.33900736  0.02648547  0.54386625     0.03000
C437        C  0.28971680  0.02316450  0.54327753    -0.11100
H438        H  0.29870599  0.06976718  0.93871764     0.08600
H439        H  0.41095038  0.04269234  0.00431567     0.06100
H440        H  0.26636700  0.01122508  0.57258982     0.06000
O441        O  0.59556879  0.06733107  0.79456117    -0.73100
O442        O  0.49766017  0.06715077  0.70426889    -0.74000
O443        O  0.50674911  0.08121747  0.79671731    -0.62700
O444        O  0.58651909  0.05316792  0.70243079    -0.71100
O445        O  0.53458180  0.96743560  0.70851577    -0.70600
O446        O  0.45436823  0.99533680  0.80254736    -0.61900
O447        O  0.44585368  0.98141778  0.71012700    -0.74400
O448        O  0.54391192  0.98151270  0.80078893    -0.73200
Cu449      Cu  0.54841534  0.07016042  0.74923975     1.04600
Cu450      Cu  0.49286425  0.97844109  0.75581584     1.04300
C451        C  0.58521874  0.02437348  0.81199355     0.93100
C452        C  0.45651878  0.02445519  0.69258789     0.92300
C453        C  0.46766054  0.04246527  0.81437942     0.84400
C454        C  0.57301930  0.00609478  0.69020837     0.90700
C455        C  0.98952041  0.25247676  0.00292099     0.03000
C456        C  0.99379131  0.28041676  0.96504855    -0.13100
C457        C  0.98553511  0.32355873  0.96705672     0.00500
C458        C  0.97830422  0.34232510  0.00742096    -0.11700
C459        C  0.97967404  0.32032377  0.54744214     0.03000
C460        C  0.97994414  0.27267424  0.54563540    -0.11100
H461        H  0.00274220  0.26848037  0.93391332     0.08600
H462        H  0.97410752  0.37695011  0.00908307     0.06100
H463        H  0.97356095  0.25159570  0.57541960     0.06000
C464        C  0.99729354  0.76666666  0.51855082     0.03000
C465        C  0.99225616  0.73991356  0.55724662    -0.13100
C466        C  0.98043273  0.68730423  0.55552170     0.00500
C467        C  0.97688447  0.66248283  0.51502331    -0.11700
C468        C  0.97627648  0.68850525  0.97848809     0.03000
C469        C  0.98777523  0.74075069  0.98101009    -0.11100
H470        H  0.99840401  0.75998740  0.58870104     0.08600
H471        H  0.97211675  0.62344336  0.51356977     0.06100
H472        H  0.98909277  0.76002107  0.95114547     0.06000
O473        O  0.01788761  0.47650616  0.80816683    -0.73100
O474        O  0.01953899  0.57153481  0.71679180    -0.74000
O475        O  0.02039934  0.57431325  0.80946912    -0.62700
O476        O  0.01603136  0.47331980  0.71523299    -0.71100
O477        O  0.92920082  0.43278996  0.71593511    -0.70600
O478        O  0.93371802  0.53334540  0.80984076    -0.61900
O479        O  0.93275008  0.53102965  0.71702829    -0.74400
O480        O  0.93119407  0.43540847  0.80886680    -0.73200
Cu481      Cu  0.02143624  0.52531153  0.76242182     1.04600
Cu482      Cu  0.92872220  0.48169020  0.76296014     1.04300
C483        C  0.97435211  0.44092889  0.82340588     0.93100
C484        C  0.97670507  0.56658643  0.70224826     0.92300
C485        C  0.97777641  0.56982169  0.82486831     0.84400
C486        C  0.97164866  0.43751283  0.70002132     0.90700
C487        C  0.06407736  0.07016667  0.50123682     0.02200
C488        C  0.06675570  0.02348682  0.50501237     0.02200
C489        C  0.01994636  0.97379695  0.50715974     0.02200
C490        C  0.97053605  0.97080579  0.50196076     0.02200
C491        C  0.96751217  0.01749403  0.50249264     0.02200
C492        C  0.01428052  0.06750551  0.50346205     0.02200
C493        C  0.98907180  0.84148028  0.55192316    -0.20400
C494        C  0.01123330  0.82313262  0.51989759    -0.07000
C495        C  0.04718709  0.86034758  0.99090560     0.13900
C496        C  0.04818772  0.90799163  0.98661439    -0.20500
C497        C  0.02156861  0.92430854  0.51506966    -0.07000
C498        C  0.99642961  0.89252969  0.55126863     0.13900
C499        C  0.97752547  0.91124222  0.59000249    -0.23800
H500        H  0.96535752  0.81589386  0.57754540     0.15200
H501        H  0.06658595  0.93013588  0.95813241     0.15200
C502        C  0.08259838  0.84987558  0.96139576    -0.23800
H503        H  0.99843607  0.91068398  0.61973133     0.05400
H504        H  0.93846036  0.88753020  0.09684658     0.08600
H505        H  0.98499217  0.95184386  0.58688441     0.08600
H506        H  0.06936348  0.84569304  0.92700234     0.08600
H507        H  0.08382557  0.81465256  0.46912398     0.08600
H508        H  0.12336413  0.88344610  0.96433149     0.05400
C509        C  0.02304766  0.67636096  0.91585084    -0.20400
C510        C  0.97512479  0.66296810  0.93590812    -0.07000
C511        C  0.92807035  0.62289986  0.91716695     0.13900
C512        C  0.93024709  0.59473069  0.88010073    -0.20500
C513        C  0.97855438  0.60545774  0.86122996    -0.07000
C514        C  0.02563587  0.64837421  0.87880252     0.13900
C515        C  0.07899186  0.66508210  0.85959893    -0.23800
H516        H  0.05894456  0.70782935  0.93036884     0.15200
H517        H  0.89378653  0.56312783  0.86661956     0.15200
C518        C  0.87568356  0.60990751  0.93642370    -0.23800
H519        H  0.11050497  0.70062013  0.87670109     0.05400
H520        H  0.07944196  0.67462167  0.82481858     0.08600
H521        H  0.08876567  0.63340627  0.86263063     0.08600
H522        H  0.87121730  0.64526704  0.93672272     0.08600
H523        H  0.87305262  0.59674667  0.97031185     0.08600
H524        H  0.84251698  0.57817625  0.91731301     0.05400
C525        C  0.02134002  0.67834663  0.62248761    -0.20400
C526        C  0.97681700  0.65916072  0.59572011    -0.07000
C527        C  0.93114121  0.61174628  0.60595619     0.13900
C528        C  0.93212638  0.58332657  0.64146050    -0.20500
C529        C  0.97761253  0.60092436  0.66715523    -0.07000
C530        C  0.02254026  0.65002083  0.65803125     0.13900
C531        C  0.07191198  0.67347176  0.68541441    -0.23800
H532        H  0.05605836  0.71500669  0.61458678     0.15200
H533        H  0.89732896  0.54636325  0.64846220     0.15200
C534        C  0.88098471  0.59140654  0.58000009    -0.23800
H535        H  0.10117803  0.71351678  0.67511643     0.05400
H536        H  0.09080492  0.64895867  0.68207666     0.08600
H537        H  0.06236989  0.67656052  0.72011667     0.08600
H538        H  0.88650959  0.58139397  0.54595825     0.08600
H539        H  0.86894445  0.62170209  0.57992907     0.08600
H540        H  0.84835272  0.55540167  0.59404151     0.05400
C541        C  0.01775514  0.19519638  0.54006118    -0.20400
C542        C  0.99714563  0.20550753  0.00157308    -0.07000
C543        C  0.97944845  0.16725439  0.96677682     0.13900
C544        C  0.99246085  0.12723553  0.96686145    -0.20500
C545        C  0.01008027  0.11636499  0.50439757    -0.07000
C546        C  0.02309525  0.15048831  0.54168492     0.13900
C547        C  0.03939469  0.14001548  0.58490970    -0.23800
H548        H  0.03202717  0.22289702  0.56755185     0.15200
H549        H  0.98035854  0.09924850  0.93954072     0.15200
C550        C  0.94266928  0.16363459  0.93117249    -0.23800
H551        H  0.01094492  0.13679795  0.61035779     0.05400
H552        H  0.08373677  0.17911568  0.09318590     0.08600
H553        H  0.04127563  0.10331122  0.58436421     0.08600
H554        H  0.96392850  0.17476890  0.89971158     0.08600
H555        H  0.92070582  0.18991688  0.44267629     0.08600
H556        H  0.90957992  0.12260777  0.92779866     0.05400
C557        C  0.93177344  0.35152779  0.59556273    -0.20400
C558        C  0.97507157  0.34421147  0.58946526    -0.07000
C559        C  0.01572330  0.36497923  0.62105682     0.13900
C560        C  0.01258648  0.39365401  0.65741990    -0.20500
C561        C  0.96986276  0.40231385  0.66313020    -0.07000
C562        C  0.92842122  0.38008803  0.63186800     0.13900
C563        C  0.88161736  0.38814693  0.63501210    -0.23800
H564        H  0.90099048  0.33587595  0.57098426     0.15200
H565        H  0.04431991  0.41030614  0.68114821     0.15200
C566        C  0.06366307  0.35918514  0.61548482    -0.23800
H567        H  0.85472227  0.37010020  0.60657031     0.05400
H568        H  0.89492628  0.43076582  0.63608843     0.08600
H569        H  0.85866424  0.36959508  0.66465451     0.08600
H570        H  0.08326919  0.37623123  0.58424576     0.08600
H571        H  0.05222797  0.31709382  0.61546568     0.08600
H572        H  0.09257990  0.37962541  0.64231103     0.05400
C573        C  0.93398539  0.34258896  0.91515880    -0.20400
C574        C  0.98279027  0.34915109  0.92728610    -0.07000
C575        C  0.02814179  0.38399080  0.90448320     0.13900
C576        C  0.02371537  0.41217629  0.87027687    -0.20500
C577        C  0.97494931  0.40687263  0.85834777    -0.07000
C578        C  0.92920441  0.37076191  0.88109605     0.13900
C579        C  0.87524501  0.36206289  0.87092249    -0.23800
H580        H  0.89946130  0.31598038  0.93333217     0.15200
H581        H  0.05904315  0.43931085  0.85331851     0.15200
C582        C  0.08141650  0.39283268  0.91727438    -0.23800
H583        H  0.84473883  0.33272363  0.89238974     0.05400
H584        H  0.86415983  0.34702710  0.83678837     0.08600
H585        H  0.87467583  0.39933770  0.87592919     0.08600
H586        H  0.08212724  0.35553924  0.91343989     0.08600
H587        H  0.09007399  0.40711652  0.95179255     0.08600
H588        H  0.11305471  0.42238633  0.89673346     0.05400
C589        C  0.14377454  0.02177768  0.96735603    -0.20400
C590        C  0.11920622  0.02711433  0.50593333    -0.07000
C591        C  0.14713623  0.03515518  0.54506772     0.13900
C592        C  0.19735401  0.04030421  0.54356203    -0.20500
C593        C  0.22331667  0.03566668  0.00393846    -0.07000
C594        C  0.19073656  0.02025121  0.96607611     0.13900
C595        C  0.20057283  0.99676522  0.92508696    -0.23800
H596        H  0.12071954  0.01303960  0.93777818     0.15200
H597        H  0.21994852  0.05087627  0.57348868     0.15200
C598        C  0.12337876  0.03663961  0.58847291    -0.23800
H599        H  0.16337835  0.96190145  0.91369091     0.05400
H600        H  0.22202491  0.97753498  0.43054896     0.08600
H601        H  0.21505556  0.02590995  0.89895062     0.08600
H602        H  0.08712696  0.99850113  0.59326636     0.08600
H603        H  0.11858383  0.07220596  0.08982000     0.08600
H604        H  0.15063023  0.04354324  0.61593754     0.05400
C605        C  0.46709494  0.08635019  0.88455778    -0.20400
C606        C  0.43849206  0.05202310  0.84975139    -0.07000
C607        C  0.38296118  0.02557395  0.85086097     0.13900
C608        C  0.35771388  0.03000383  0.88852770    -0.20500
C609        C  0.38630938  0.06159021  0.92472067    -0.07000
C610        C  0.44179517  0.09222296  0.92165427     0.13900
C611        C  0.47557161  0.13178704  0.95651646    -0.23800
H612        H  0.50966828  0.10789697  0.88330116     0.15200
H613        H  0.31523066  0.00713746  0.89006131     0.15200
C614        C  0.34900781  0.99308491  0.81279042    -0.23800
H615        H  0.50021975  0.17055355  0.94172526     0.05400
H616        H  0.50169419  0.11919703  0.97131806     0.08600
H617        H  0.45228605  0.13742346  0.98258377     0.08600
H618        H  0.37185555  0.99482528  0.78330780     0.08600
H619        H  0.32238041  0.00795621  0.80371453     0.08600
H620        H  0.32489126  0.95152212  0.82210642     0.05400
C621        C  0.39537351  0.97876470  0.63033299    -0.20400
C622        C  0.42204931  0.02418699  0.65729664    -0.07000
C623        C  0.41641977  0.06830082  0.64884493     0.13900
C624        C  0.38615642  0.06630726  0.61293263    -0.20500
C625        C  0.36203935  0.02193906  0.58491035    -0.07000
C626        C  0.36583464  0.97723639  0.59408989     0.13900
C627        C  0.33981957  0.92768068  0.56603951    -0.23800
H628        H  0.39903913  0.94464143  0.63658810     0.15200
H629        H  0.38300889  0.10045569  0.60554419     0.15200
C630        C  0.44183010  0.11761361  0.67729324    -0.23800
H631        H  0.31269715  0.89428889  0.58627434     0.05400
H632        H  0.37021302  0.91959566  0.55210489     0.08600
H633        H  0.31663170  0.92992586  0.53876385     0.08600
H634        H  0.48520931  0.13722514  0.67456352     0.08600
H635        H  0.42998580  0.10785867  0.71174640     0.08600
H636        H  0.42995759  0.14626863  0.66746645     0.05400
C637        C  0.84389636  0.02082450  0.53699473    -0.20400
C638        C  0.81223298  0.00083035  0.49932659    -0.07000
C639        C  0.83569540  0.98902089  0.96516277     0.13900
C640        C  0.88714842  0.99713565  0.96610527    -0.20500
C641        C  0.91459950  0.01339810  0.50203985    -0.07000
C642        C  0.89287958  0.02391817  0.53968288     0.13900
C643        C  0.91831482  0.03524072  0.58394712    -0.23800
H644        H  0.83013606  0.03327305  0.56530839     0.15200
H645        H  0.90147004  0.98455135  0.93822836     0.15200
C646        C  0.80101528  0.95568864  0.92773572    -0.23800
H647        H  0.89126569  0.00505410  0.60674157     0.05400
H648        H  0.93202107  0.08126351  0.09680288     0.08600
H649        H  0.95535012  0.03401756  0.58380465     0.08600
H650        H  0.81456803  0.97746593  0.89704200     0.08600
H651        H  0.75573667  0.93853563  0.42956797     0.08600
H652        H  0.80339863  0.91920655  0.92412845     0.05400
C653        C  0.66073701  0.98510044  0.88811286    -0.20400
C654        C  0.67842086  0.02587084  0.91982452    -0.07000
C655        C  0.67022396  0.06859855  0.91345072     0.13900
C656        C  0.64137778  0.06777494  0.87698153    -0.22900
C657        C  0.62013452  0.02509900  0.84688119    -0.07000
C658        C  0.63160412  0.98409050  0.85165503     0.13900
C659        C  0.61412624  0.93972848  0.81824863    -0.23800
H660        H  0.66806067  0.95290806  0.89281163     0.15200
H661        H  0.63370551  0.09982813  0.87285554     0.15200
C662        C  0.69215718  0.11525341  0.94487392    -0.23800
H663        H  0.62973992  0.91333711  0.82574436     0.05400
H664        H  0.62859525  0.95581092  0.78552234     0.08600
H665        H  0.57066002  0.91560639  0.81756507     0.08600
H666        H  0.73537779  0.13255696  0.94770984     0.08600
H667        H  0.67423243  0.10335637  0.97748404     0.08600
H668        H  0.68417987  0.14620167  0.93376519     0.05400
C669        C  0.65570516  0.03452330  0.64948669    -0.20400
C670        C  0.60232505  0.99722860  0.65430857    -0.07000
C671        C  0.57784676  0.95525658  0.62304353     0.13900
C672        C  0.60679021  0.95345111  0.58686936    -0.20500
C673        C  0.65951809  0.99197703  0.58143335    -0.07000
C674        C  0.68458869  0.03242721  0.61357032     0.13900
C675        C  0.74105066  0.07510565  0.60901035    -0.23800
H676        H  0.67471010  0.06635828  0.67351857     0.15200
H677        H  0.58779370  0.92276891  0.56188964     0.15200
C678        C  0.52074310  0.91379356  0.62614098    -0.23800
H679        H  0.75356387  0.10493391  0.63610564     0.05400
H680        H  0.74624291  0.09542501  0.57792333     0.08600
H681        H  0.76720472  0.05798593  0.60945218     0.08600
H682        H  0.49586296  0.93244260  0.62690836     0.08600
H683        H  0.51422729  0.89111153  0.65603912     0.08600
H684        H  0.50789526  0.88552064  0.59786078     0.05400
C685        C  0.86934347  0.83804582  0.95980640    -0.20400
C686        C  0.82847124  0.81855309  0.49096696    -0.07000
C687        C  0.83582948  0.85437641  0.52604817     0.13900
C688        C  0.88323182  0.90210711  0.52968382    -0.20500
C689        C  0.92140086  0.91830273  0.49696646    -0.07000
C690        C  0.91427415  0.88825269  0.96140710     0.13900
C691        C  0.94846157  0.90729475  0.92155955    -0.23800
H692        H  0.86412972  0.81174936  0.93237833     0.15200
H693        H  0.88970476  0.92787059  0.55780283     0.15200
C694        C  0.79380081  0.84581325  0.55879667    -0.23800
H695        H  0.93349326  0.87730868  0.89451182     0.05400
H696        H  0.98576048  0.91494272  0.42633424     0.08600
H697        H  0.94929905  0.94299971  0.90986755     0.08600
H698        H  0.80567264  0.84016595  0.59151213     0.08600
H699        H  0.75602739  0.81665013  0.04918845     0.08600
H700        H  0.78881440  0.88088551  0.56050564     0.05400
C701        C  0.67682867  0.60282572  0.84560373    -0.20400
C702        C  0.63185428  0.60461984  0.83250035    -0.07000
C703        C  0.61897474  0.63937105  0.85588367     0.13900
C704        C  0.64972590  0.66890214  0.89208943    -0.20500
C705        C  0.69296576  0.66511632  0.90571015    -0.07000
C706        C  0.70728828  0.63246467  0.88186797     0.13900
C707        C  0.75426878  0.62829634  0.89528795    -0.23800
H708        H  0.68784208  0.57729355  0.82794842     0.15200
H709        H  0.63905461  0.69403784  0.91085771     0.15200
C710        C  0.57234628  0.64508139  0.84421604    -0.23800
H711        H  0.76042997  0.60128564  0.87307957     0.05400
H712        H  0.74867628  0.61322871  0.92878273     0.08600
H713        H  0.79016077  0.66760299  0.89469783     0.08600
H714        H  0.53555564  0.60678884  0.84683983     0.08600
H715        H  0.57674007  0.65962019  0.81062587     0.08600
H716        H  0.56860285  0.67365761  0.86637812     0.05400
C717        C  0.67092979  0.67682910  0.59206854    -0.20400
C718        C  0.69436864  0.65582695  0.56423503    -0.07000
C719        C  0.69009854  0.60721669  0.57349408     0.13900
C720        C  0.66096043  0.57990465  0.60980081    -0.20500
C721        C  0.63515118  0.59953287  0.63678964    -0.07000
C722        C  0.64102733  0.64929853  0.62802933     0.13900
C723        C  0.61637558  0.67410553  0.65616471    -0.23800
H724        H  0.67456451  0.71430644  0.58461701     0.15200
H725        H  0.65706965  0.54211743  0.61629203     0.15200
C726        C  0.71647251  0.58429429  0.54526950    -0.23800
H727        H  0.62818580  0.71438333  0.64591245     0.05400
H728        H  0.62893934  0.67691970  0.69061991     0.08600
H729        H  0.57293010  0.65059021  0.65359320     0.08600
H730        H  0.75937279  0.61233506  0.54421935     0.08600
H731        H  0.70017143  0.57625179  0.51166383     0.08600
H732        H  0.71054556  0.54679339  0.55799346     0.05400
C733        C  0.14050146  0.15420591  0.52967129    -0.20400
C734        C  0.11392642  0.12120278  0.49386421    -0.07000
C735        C  0.14182970  0.13413923  0.95220145     0.13900
C736        C  0.19325928  0.17690019  0.94819892    -0.20500
C737        C  0.21426274  0.21389492  0.48490418    -0.07000
C738        C  0.18633115  0.20269105  0.52494563     0.13900
C739        C  0.20023150  0.24181654  0.56253552    -0.23800
H740        H  0.12522200  0.14308258  0.56177085     0.15200
H741        H  0.21248694  0.18221153  0.91699391     0.15200
C742        C  0.11447891  0.10238608  0.91157271    -0.23800
H743        H  0.16489872  0.24408872  0.57234588     0.05400
H744        H  0.23845831  0.28370885  0.05034669     0.08600
H745        H  0.21393864  0.22923783  0.59089733     0.08600
H746        H  0.07473061  0.06906275  0.91806725     0.08600
H747        H  0.10533806  0.13044387  0.38865494     0.08600
H748        H  0.13834785  0.08675071  0.89596862     0.05400
C749        C  0.39900176  0.40962331  0.84244149    -0.20400
C750        C  0.43929215  0.40136510  0.82557598    -0.07000
C751        C  0.44522893  0.36013264  0.84264401     0.13900
C752        C  0.41313320  0.33108188  0.87712243    -0.20500
C753        C  0.37503974  0.34138338  0.89496801    -0.07000
C754        C  0.36704391  0.38029978  0.87693674     0.13900
C755        C  0.32625253  0.39230770  0.89524441    -0.23800
H756        H  0.39329036  0.44028505  0.82953534     0.15200
H757        H  0.41902042  0.30117729  0.89149889     0.15200
C758        C  0.48551479  0.34644664  0.82581336    -0.23800
H759        H  0.32567184  0.42456700  0.87787003     0.05400
H760        H  0.33464658  0.40432197  0.93023327     0.08600
H761        H  0.28670921  0.35693280  0.89195844     0.08600
H762        H  0.52571943  0.37999081  0.83177086     0.08600
H763        H  0.47904896  0.33602259  0.79043989     0.08600
H764        H  0.48294375  0.31222795  0.84241078     0.05400
C765        C  0.41876140  0.33302699  0.57511029    -0.20400
C766        C  0.38394134  0.34667394  0.55671597    -0.07000
C767        C  0.37860656  0.38788201  0.57609753     0.13900
C768        C  0.40885955  0.41519164  0.61293424    -0.20500
C769        C  0.44525723  0.40311146  0.63115672    -0.07000
C770        C  0.44958988  0.36061912  0.61205915     0.13900
C771        C  0.48637321  0.34383088  0.62985659    -0.23800
H772        H  0.42246873  0.30122493  0.55996544     0.15200
H773        H  0.40457643  0.44712593  0.62694595     0.15200
C774        C  0.34141549  0.40373567  0.55749338    -0.23800
H775        H  0.48317169  0.30914399  0.61152461     0.05400
H776        H  0.47676127  0.33295783  0.66443100     0.08600
H777        H  0.52764463  0.37609809  0.62721764     0.08600
H778        H  0.30075483  0.37001616  0.55752494     0.08600
H779        H  0.35278431  0.41666248  0.52358831     0.08600
H780        H  0.34180802  0.43658320  0.57672533     0.05400
loop_ 
_geom_bond_atom_site_label_1 
_geom_bond_atom_site_label_2 
_geom_bond_distance 
_geom_bond_site_symmetry_2 
_ccdc_geom_bond_type 
C1            C6   1.420       .  A
C1          C392   1.417       .  A
C1          C737   1.518       .  S
C2            C3   1.399       .  A
C2          C391   1.416   1_554  A
C2            H7   1.081       .  S
C3            C4   1.394   1_554  A
C3          C376   1.480       .  S
C4          C395   1.397       .  A
C4            H8   1.085       .  S
C5            C6   1.410       .  A
C5          C394   1.398       .  A
C5          C363   1.483       .  S
C6            H9   1.081       .  S
C10          C11   1.412   1_556  A
C10         C405   1.414       .  A
C10         C296   1.501       .  S
C11          C12   1.403       .  A
C11          H16   1.083       .  S
C12          C13   1.399   1_554  A
C12         C328   1.482       .  S
C13         C404   1.399       .  A
C13          H17   1.084       .  S
C14          C15   1.404       .  A
C14         C403   1.398       .  A
C14         C315   1.477       .  S
C15         C400   1.412       .  A
C15          H18   1.083       .  S
O19         Cu27   2.008       .  S
O19          C29   1.277       .  A
O20         Cu27   2.007       .  S
O20          C30   1.279       .  A
O21         Cu27   2.014       .  S
O21          C31   1.279       .  A
O22         Cu27   2.010       .  S
O22          C32   1.277       .  A
O23         Cu28   2.023       .  S
O23          C32   1.280       .  A
O24         Cu28   2.024       .  S
O24          C31   1.279       .  A
O25         Cu28   2.015       .  S
O25          C30   1.277       .  A
O26         Cu28   2.014       .  S
O26          C29   1.279       .  A
Cu27        Cu28   2.362       .  S
C29         C312   1.492       .  S
C30         C379   1.493       .  S
C31         C360   1.498       .  S
C32         C331   1.495       .  S
C33          C34   1.416   1_556  A
C33         C428   1.412       .  A
C33         C248   1.506   1_556  S
C34          C35   1.406       .  A
C34          H39   1.082   1_545  S
C35          C36   1.398   1_554  A
C35         C283   1.489       .  S
C36         C427   1.400       .  A
C36          H40   1.084       .  S
C37          C38   1.402       .  A
C37         C426   1.398       .  A
C37         C264   1.477       .  S
C38         C423   1.410   1_545  A
C38          H41   1.083       .  S
C42          C43   1.414       .  A
C42         C437   1.414       .  A
C42         C203   1.509       .  S
C43          C44   1.405       .  A
C43          H48   1.081       .  S
C44          C45   1.399       .  A
C44         C219   1.487       .  S
C45         C436   1.397       .  A
C45          H49   1.084       .  S
C46          C47   1.399       .  A
C46         C435   1.397       .  A
C46         C235   1.476       .  S
C47         C432   1.412       .  A
C47          H50   1.082       .  S
O51         Cu59   2.014       .  S
O51          C61   1.279       .  A
O52         Cu59   2.012       .  S
O52          C62   1.278       .  A
O53         Cu59   2.014       .  S
O53          C63   1.278       .  A
O54         Cu59   2.019       .  S
O54          C64   1.279       .  A
O55         Cu60   2.018       .  S
O55          C64   1.278   1_565  A
O56         Cu60   2.017       .  S
O56          C63   1.279   1_565  A
O57         Cu60   1.999       .  S
O57          C62   1.277   1_565  A
O58         Cu60   2.004       .  S
O58          C61   1.277   1_565  A
Cu59        Cu60   2.369   1_545  S
C61         C267   1.486       .  S
C62         C232   1.480       .  S
C63         C216   1.484       .  S
C64         C280   1.492       .  S
C65          C66   1.412       .  A
C65         C460   1.415       .  A
C65         C152   1.503       .  S
C66          C67   1.403       .  A
C66          H71   1.082   1_655  S
C67          C68   1.399       .  A
C67         C184   1.480       .  S
C68         C459   1.399       .  A
C68          H72   1.085       .  S
C69          C70   1.401       .  A
C69         C458   1.396       .  A
C69         C168   1.480       .  S
C70         C455   1.415       .  A
C70          H73   1.082       .  S
C74          C75   1.410       .  A
C74         C469   1.411   1_554  A
C74         C104   1.495   1_655  S
C75          C76   1.406       .  A
C75          H80   1.083   1_655  S
C76          C77   1.400       .  A
C76         C136   1.479       .  S
C77         C468   1.398   1_554  A
C77          H81   1.085       .  S
C78          C79   1.400       .  A
C78         C467   1.397       .  A
C78         C120   1.479       .  S
C79         C464   1.412       .  A
C79          H82   1.083       .  S
O83         Cu91   2.006       .  S
O83          C93   1.277   1_455  A
O84         Cu91   2.002       .  S
O84          C94   1.276   1_455  A
O85         Cu91   2.018       .  S
O85          C95   1.279   1_455  A
O86         Cu91   2.019       .  S
O86          C96   1.280   1_455  A
O87         Cu92   2.000       .  S
O87          C96   1.275       .  A
O88         Cu92   2.002       .  S
O88          C95   1.277       .  A
O89         Cu92   2.022       .  S
O89          C94   1.280       .  A
O90         Cu92   2.022       .  S
O90          C93   1.279       .  A
Cu91        Cu92   2.363   1_455  S
C93         C187   1.492       .  S
C94         C139   1.497       .  S
C95         C123   1.488       .  S
C96         C171   1.492       .  S
C97          C98   1.420       .  A
C97         C102   1.425       .  A
C97         C344   1.503   1_554  S
C98          C99   1.424   1_545  A
C98         C200   1.495       .  S
C99         C100   1.424   1_455  A
C99         C107   1.506       .  S
C100        C101   1.421   1_565  A
C100        C299   1.502   1_554  S
C101        C102   1.426   1_655  A
C101        C251   1.504       .  S
C102        C155   1.499       .  S
C103        C104   1.408   1_655  A
C103        C108   1.407   1_655  A
C103        H110   1.083       .  S
C104        C495   1.415   1_554  A
C105        C106   1.399       .  A
C105        C494   1.417       .  A
C105        C112   1.509       .  S
C106        C497   1.403       .  A
C106        H111   1.076       .  S
C107        C108   1.419       .  A
C107        C496   1.403   1_554  A
C108        C109   1.507   1_455  S
C109        H113   1.110   1_655  S
C109        H115   1.108       .  S
C109        H504   1.110       .  S
C112        H116   1.110       .  S
C112        H118   1.111       .  S
C112        H507   1.107       .  S
H114        C499   1.109       .  S
H117        C502   1.108       .  S
C119        C120   1.401   1_455  A
C119        C124   1.403       .  A
C119        H126   1.085       .  S
C120        C121   1.409       .  A
C121        C122   1.406       .  A
C121        C128   1.507       .  S
C122        C123   1.410       .  A
C122        H127   1.084       .  S
C123        C124   1.418   1_655  A
C124        C125   1.508       .  S
C125        H129   1.111       .  S
C125        H130   1.110       .  S
C125        H131   1.111       .  S
C128        H132   1.110       .  S
C128        H133   1.110       .  S
C128        H134   1.111       .  S
C135        C136   1.398   1_455  A
C135        C140   1.405       .  A
C135        H142   1.084       .  S
C136        C137   1.410       .  A
C137        C138   1.405       .  A
C137        C144   1.508       .  S
C138        C139   1.410       .  A
C138        H143   1.083       .  S
C139        C140   1.425   1_655  A
C140        C141   1.509       .  S
C141        H145   1.111       .  S
C141        H146   1.110       .  S
C141        H147   1.110       .  S
C144        H148   1.109       .  S
C144        H149   1.110       .  S
C144        H150   1.111       .  S
C151        C156   1.400       .  A
C151        C542   1.408   1_455  A
C151        H158   1.083       .  S
C152        C153   1.422       .  A
C152        C541   1.407   1_655  A
C153        C154   1.407       .  A
C153        C160   1.508       .  S
C154        C545   1.405   1_655  A
C154        H159   1.085       .  S
C155        C156   1.418       .  A
C155        C544   1.404   1_454  A
C156        C157   1.507       .  S
C157        H161   1.108       .  S
C157        H163   1.108       .  S
C157        H552   1.109       .  S
C160        H164   1.110       .  S
C160        H166   1.112       .  S
C160        H555   1.107       .  S
H162        C547   1.109       .  S
H165        C550   1.107       .  S
C167        C168   1.399       .  A
C167        C172   1.404       .  A
C167        H174   1.084       .  S
C168        C169   1.412   1_655  A
C169        C170   1.405       .  A
C169        C176   1.508       .  S
C170        C171   1.407   1_455  A
C170        H175   1.083       .  S
C171        C172   1.423       .  A
C172        C173   1.509       .  S
C173        H177   1.111       .  S
C173        H178   1.111       .  S
C173        H179   1.110       .  S
C176        H180   1.111       .  S
C176        H181   1.109       .  S
C176        H182   1.111       .  S
C183        C184   1.401       .  A
C183        C188   1.407       .  A
C183        H190   1.085       .  S
C184        C185   1.409   1_655  A
C185        C186   1.404       .  A
C185        C192   1.507       .  S
C186        C187   1.409   1_455  A
C186        H191   1.084       .  S
C187        C188   1.420       .  A
C188        C189   1.507       .  S
C189        H193   1.111       .  S
C189        H194   1.111       .  S
C189        H195   1.109       .  S
C192        H196   1.111       .  S
C192        H197   1.110       .  S
C192        H198   1.111       .  S
C199        C204   1.401       .  A
C199        C590   1.398       .  A
C199        H206   1.084       .  S
C200        C201   1.407       .  A
C200        C589   1.399   1_554  A
C201        C202   1.407       .  A
C201        C208   1.506       .  S
C202        C593   1.415       .  A
C202        H207   1.081       .  S
C203        C204   1.425       .  A
C203        C592   1.415       .  A
C204        C205   1.509   1_545  S
C205        H209   1.111       .  S
C205        H211   1.110   1_565  S
C205        H600   1.107       .  S
C208        H212   1.109       .  S
C208        H214   1.111       .  S
C208        H603   1.105       .  S
H210        C595   1.107       .  S
H213        C598   1.105       .  S
C215        C216   1.405       .  A
C215        C220   1.405       .  A
C215        H222   1.084       .  S
C216        C217   1.417       .  A
C217        C218   1.404       .  A
C217        C224   1.508   1_545  S
C218        C219   1.404       .  A
C218        H223   1.084   1_545  S
C219        C220   1.416       .  A
C220        C221   1.507       .  S
C221        H225   1.110       .  S
C221        H226   1.110       .  S
C221        H227   1.108       .  S
C224        H228   1.107       .  S
C224        H229   1.111       .  S
C224        H230   1.110       .  S
C231        C232   1.406   1_565  A
C231        C236   1.401       .  A
C231        H238   1.084       .  S
C232        C233   1.416       .  A
C233        C234   1.404       .  A
C233        C240   1.508       .  S
C234        C235   1.403       .  A
C234        H239   1.084       .  S
C235        C236   1.411   1_545  A
C236        C237   1.507       .  S
C237        H241   1.110       .  S
C237        H242   1.110       .  S
C237        H243   1.108       .  S
C240        H244   1.109       .  S
C240        H245   1.111       .  S
C240        H246   1.111       .  S
C247        C248   1.408       .  A
C247        C252   1.402       .  A
C247        H254   1.082       .  S
C248        C639   1.424   1_544  A
C249        C250   1.406       .  A
C249        C638   1.422   1_565  A
C249        C256   1.508       .  S
C250        C641   1.404   1_565  A
C250        H255   1.083       .  S
C251        C252   1.414       .  A
C251        C640   1.404   1_544  A
C252        C253   1.502       .  S
C253        H257   1.110       .  S
C253        H259   1.106       .  S
C253        H648   1.108       .  S
C256        H260   1.110       .  S
C256        H262   1.111       .  S
C256        H651   1.107       .  S
H258        C643   1.108       .  S
H261        C646   1.107       .  S
C263        C264   1.399   1_565  A
C263        C268   1.403       .  A
C263        H270   1.084       .  S
C264        C265   1.410       .  A
C265        C266   1.405       .  A
C265        C272   1.507       .  S
C266        C267   1.407       .  A
C266        H271   1.084       .  S
C267        C268   1.419   1_545  A
C268        C269   1.508       .  S
C269        H273   1.111       .  S
C269        H274   1.110       .  S
C269        H275   1.109       .  S
C272        H276   1.110       .  S
C272        H277   1.109       .  S
C272        H278   1.111       .  S
C279        C280   1.406       .  A
C279        C284   1.406       .  A
C279        H286   1.084       .  S
C280        C281   1.420   1_545  A
C281        C282   1.408       .  A
C281        C288   1.508       .  S
C282        C283   1.404   1_565  A
C282        H287   1.084       .  S
C283        C284   1.415       .  A
C284        C285   1.508       .  S
C285        H289   1.111       .  S
C285        H290   1.111       .  S
C285        H291   1.109       .  S
C288        H292   1.111       .  S
C288        H293   1.109       .  S
C288        H294   1.111       .  S
C295        C300   1.406       .  A
C295        C686   1.408       .  A
C295        H302   1.083       .  S
C296        C297   1.421   1_556  A
C296        C685   1.408       .  A
C297        C298   1.404       .  A
C297        C304   1.508       .  S
C298        C299   1.403   1_554  A
C298        H303   1.083       .  S
C299        C690   1.414       .  A
C300        C689   1.414       .  A
C300        C301   1.508       .  S
C301        H305   1.111       .  S
C301        H307   1.109       .  S
C301        H696   1.101       .  S
C304        H308   1.110       .  S
C304        H310   1.111       .  S
C304        H699   1.107       .  S
H306        C691   1.100       .  S
H309        C694   1.107       .  S
C311        C312   1.409       .  A
C311        C316   1.404       .  A
C311        H318   1.084       .  S
C312        C313   1.422       .  A
C313        C314   1.406       .  A
C313        C320   1.508       .  S
C314        C315   1.400       .  A
C314        H319   1.085       .  S
C315        C316   1.409       .  A
C316        C317   1.507       .  S
C317        H321   1.111       .  S
C317        H322   1.111       .  S
C317        H323   1.110       .  S
C320        H324   1.110       .  S
C320        H325   1.110       .  S
C320        H326   1.111       .  S
C327        C328   1.400       .  A
C327        C332   1.406       .  A
C327        H334   1.085       .  S
C328        C329   1.410       .  A
C329        C330   1.407       .  A
C329        C336   1.507       .  S
C330        C331   1.410       .  A
C330        H335   1.084       .  S
C331        C332   1.423       .  A
C332        C333   1.508       .  S
C333        H337   1.111       .  S
C333        H338   1.110       .  S
C333        H339   1.109       .  S
C336        H340   1.111       .  S
C336        H341   1.109       .  S
C336        H342   1.111       .  S
C343        C344   1.397   1_554  A
C343        C348   1.398       .  A
C343        H350   1.070       .  S
C344        C735   1.416       .  A
C345        C346   1.414       .  A
C345        C734   1.416       .  A
C345        C352   1.506       .  S
C346        C737   1.415       .  A
C346        H351   1.081       .  S
C347        C348   1.421   1_556  A
C347        C736   1.413       .  A
C347        C391   1.509       .  S
C348        C349   1.510       .  S
C349        H353   1.111       .  S
C349        H355   1.110       .  S
C349        H744   1.107       .  S
C352        H356   1.109       .  S
C352        H358   1.110       .  S
C352        H747   1.110       .  S
H354        C739   1.105       .  S
H357        C742   1.110       .  S
C359        C360   1.410       .  A
C359        C364   1.406       .  A
C359        H366   1.083       .  S
C360        C361   1.422       .  A
C361        C362   1.409       .  A
C361        C368   1.508       .  S
C362        C363   1.401       .  A
C362        H367   1.084       .  S
C363        C364   1.409       .  A
C364        C365   1.506       .  S
C365        H369   1.111       .  S
C365        H370   1.109       .  S
C365        H371   1.110       .  S
C368        H372   1.109       .  S
C368        H373   1.111       .  S
C368        H374   1.111       .  S
C375        C376   1.401       .  A
C375        C380   1.411       .  A
C375        H382   1.084       .  S
C376        C377   1.411       .  A
C377        C378   1.399       .  A
C377        C384   1.510       .  S
C378        C379   1.406       .  A
C378        H383   1.084       .  S
C379        C380   1.423       .  A
C380        C381   1.507       .  S
C381        H385   1.111       .  S
C381        H386   1.111       .  S
C381        H387   1.109       .  S
C384        H388   1.110       .  S
C384        H389   1.109       .  S
C384        H390   1.111       .  S
C391        C396   1.416       .  A
C392        C393   1.401       .  A
C392        H397   1.080       .  S
C393        C394   1.395       .  A
C393        C766   1.482       .  S
C394        H398   1.085       .  S
C395        C396   1.407       .  A
C395        C753   1.478       .  S
C396        H399   1.081       .  S
C400        C401   1.411       .  A
C400        C686   1.498       .  S
C401        C402   1.402       .  A
C401        H406   1.083       .  S
C402        C403   1.397       .  A
C402        C718   1.478       .  S
C403        H407   1.084       .  S
C404        C405   1.405       .  A
C404        C705   1.481       .  S
C405        H408   1.083       .  S
O409       Cu417   2.010       .  S
O409        C419   1.277       .  A
O410       Cu417   2.006       .  S
O410        C420   1.279       .  A
O411       Cu417   2.015       .  S
O411        C421   1.279       .  A
O412       Cu417   2.011       .  S
O412        C422   1.278       .  A
O413       Cu418   2.006       .  S
O413        C422   1.278       .  A
O414       Cu418   2.007       .  S
O414        C421   1.276       .  A
O415       Cu418   2.025       .  S
O415        C420   1.279       .  A
O416       Cu418   2.028       .  S
O416        C419   1.281       .  A
Cu417      Cu418   2.360       .  S
C419        C702   1.502       .  S
C420        C769   1.500       .  S
C421        C750   1.497       .  S
C422        C721   1.489       .  S
C423        C424   1.412       .  A
C423        C638   1.499   1_565  S
C424        C425   1.402       .  A
C424        H429   1.083       .  S
C425        C426   1.398   1_565  A
C425        C673   1.481       .  S
C426        H430   1.084       .  S
C427        C428   1.403       .  A
C427        C654   1.481       .  S
C428        H431   1.083       .  S
C432        C433   1.416   1_554  A
C432        C593   1.509       .  S
C433        C434   1.409       .  A
C433        H438   1.081       .  S
C434        C435   1.401   1_556  A
C434        C609   1.492       .  S
C435        H439   1.084       .  S
C436        C437   1.402       .  A
C436        C625   1.477       .  S
C437        H440   1.081       .  S
O441       Cu449   2.005       .  S
O441        C451   1.277       .  A
O442       Cu449   2.009       .  S
O442        C452   1.277       .  A
O443       Cu449   2.013       .  S
O443        C453   1.278       .  A
O444       Cu449   2.010       .  S
O444        C454   1.279       .  A
O445       Cu450   2.010       .  S
O445        C454   1.277   1_565  A
O446       Cu450   2.015       .  S
O446        C453   1.279   1_565  A
O447       Cu450   2.012       .  S
O447        C452   1.279   1_565  A
O448       Cu450   2.015       .  S
O448        C451   1.278   1_565  A
Cu449      Cu450   2.370   1_545  S
C451        C657   1.483       .  S
C452        C622   1.487       .  S
C453        C606   1.480       .  S
C454        C670   1.486   1_545  S
C455        C456   1.413   1_554  A
C455        C542   1.505       .  S
C456        C457   1.405       .  A
C456        H461   1.082   1_655  S
C457        C458   1.397   1_556  A
C457        C574   1.478       .  S
C458        H462   1.084       .  S
C459        C460   1.404       .  A
C459        C558   1.485       .  S
C460        H463   1.082       .  S
C464        C465   1.411       .  A
C464        C494   1.498   1_655  S
C465        C466   1.406       .  A
C465        H470   1.083       .  S
C466        C467   1.399       .  A
C466        C526   1.481       .  S
C467        H471   1.084       .  S
C468        C469   1.399       .  A
C468        C510   1.478       .  S
C469        H472   1.083       .  S
O473       Cu481   2.005       .  S
O473        C483   1.278   1_455  A
O474       Cu481   2.003       .  S
O474        C484   1.276   1_455  A
O475       Cu481   2.017       .  S
O475        C485   1.278   1_455  A
O476       Cu481   2.020       .  S
O476        C486   1.280   1_455  A
O477       Cu482   2.009       .  S
O477        C486   1.277       .  A
O478       Cu482   2.010       .  S
O478        C485   1.278       .  A
O479       Cu482   2.016       .  S
O479        C484   1.280       .  A
O480       Cu482   2.017       .  S
O480        C483   1.278       .  A
Cu481      Cu482   2.361   1_455  S
C483        C577   1.497       .  S
C484        C529   1.491       .  S
C485        C513   1.498       .  S
C486        C561   1.492       .  S
C487        C488   1.422       .  A
C487        C492   1.426       .  A
C487        C734   1.507       .  S
C488        C489   1.425   1_545  A
C488        C590   1.490       .  S
C489        C490   1.420   1_455  A
C489        C497   1.507       .  S
C490        C491   1.419   1_565  A
C490        C689   1.502       .  S
C491        C492   1.426   1_655  A
C491        C641   1.498       .  S
C492        C545   1.501       .  S
C493        C494   1.408   1_655  A
C493        C498   1.407       .  A
C493        H500   1.083       .  S
C495        C496   1.397       .  A
C495        C502   1.509       .  S
C496        H501   1.075       .  S
C497        C498   1.419   1_455  A
C498        C499   1.507       .  S
C499        H503   1.110       .  S
C499        H505   1.108       .  S
C502        H506   1.110       .  S
C502        H508   1.111       .  S
C509        C510   1.400   1_455  A
C509        C514   1.405       .  A
C509        H516   1.085       .  S
C510        C511   1.406       .  A
C511        C512   1.405       .  A
C511        C518   1.507       .  S
C512        C513   1.413       .  A
C512        H517   1.083       .  S
C513        C514   1.424   1_655  A
C514        C515   1.508       .  S
C515        H519   1.111       .  S
C515        H520   1.110       .  S
C515        H521   1.110       .  S
C518        H522   1.111       .  S
C518        H523   1.110       .  S
C518        H524   1.111       .  S
C525        C526   1.400   1_455  A
C525        C530   1.405       .  A
C525        H532   1.084       .  S
C526        C527   1.413       .  A
C527        C528   1.404       .  A
C527        C534   1.509       .  S
C528        C529   1.407       .  A
C528        H533   1.084       .  S
C529        C530   1.422   1_655  A
C530        C531   1.508       .  S
C531        H535   1.111       .  S
C531        H536   1.109       .  S
C531        H537   1.111       .  S
C534        H538   1.108       .  S
C534        H539   1.110       .  S
C534        H540   1.111       .  S
C541        C546   1.402       .  A
C541        H548   1.083       .  S
C542        C543   1.424   1_554  A
C543        C544   1.407       .  A
C543        C550   1.508       .  S
C544        H549   1.085       .  S
C545        C546   1.419       .  A
C546        C547   1.507       .  S
C547        H551   1.108       .  S
C547        H553   1.107       .  S
C550        H554   1.110       .  S
C550        H556   1.111       .  S
C557        C558   1.401       .  A
C557        C562   1.406       .  A
C557        H564   1.084       .  S
C558        C559   1.413   1_655  A
C559        C560   1.407       .  A
C559        C566   1.507       .  S
C560        C561   1.407   1_455  A
C560        H565   1.084       .  S
C561        C562   1.421       .  A
C562        C563   1.508       .  S
C563        H567   1.111       .  S
C563        H568   1.111       .  S
C563        H569   1.110       .  S
C566        H570   1.110       .  S
C566        H571   1.109       .  S
C566        H572   1.111       .  S
C573        C574   1.400       .  A
C573        C578   1.405       .  A
C573        H580   1.084       .  S
C574        C575   1.407   1_655  A
C575        C576   1.404       .  A
C575        C582   1.507       .  S
C576        C577   1.412   1_455  A
C576        H581   1.083       .  S
C577        C578   1.423       .  A
C578        C579   1.508       .  S
C579        H583   1.111       .  S
C579        H584   1.110       .  S
C579        H585   1.110       .  S
C582        H586   1.110       .  S
C582        H587   1.111       .  S
C582        H588   1.111       .  S
C589        C594   1.402       .  A
C589        H596   1.083       .  S
C590        C591   1.407       .  A
C591        C592   1.406       .  A
C591        C598   1.506       .  S
C592        H597   1.081       .  S
C593        C594   1.424   1_554  A
C594        C595   1.509   1_545  S
C595        H599   1.111       .  S
C595        H601   1.110   1_565  S
C598        H602   1.109   1_545  S
C598        H604   1.110       .  S
C605        C606   1.403       .  A
C605        C610   1.405       .  A
C605        H612   1.085       .  S
C606        C607   1.415       .  A
C607        C608   1.404       .  A
C607        C614   1.508   1_545  S
C608        C609   1.406       .  A
C608        H613   1.084       .  S
C609        C610   1.419       .  A
C610        C611   1.508       .  S
C611        H615   1.110       .  S
C611        H616   1.111       .  S
C611        H617   1.108       .  S
C614        H618   1.108       .  S
C614        H619   1.111   1_565  S
C614        H620   1.110       .  S
C621        C622   1.407   1_565  A
C621        C626   1.403       .  A
C621        H628   1.084       .  S
C622        C623   1.419       .  A
C623        C624   1.404       .  A
C623        C630   1.508       .  S
C624        C625   1.401       .  A
C624        H629   1.084       .  S
C625        C626   1.411   1_545  A
C626        C627   1.507       .  S
C627        H631   1.110       .  S
C627        H632   1.110       .  S
C627        H633   1.109       .  S
C630        H634   1.109       .  S
C630        H635   1.110       .  S
C630        H636   1.111       .  S
C637        C638   1.407       .  A
C637        C642   1.398       .  A
C637        H644   1.082       .  S
C639        C640   1.408       .  A
C639        C646   1.508       .  S
C640        H645   1.083       .  S
C641        C642   1.412       .  A
C642        C643   1.503       .  S
C643        H647   1.111       .  S
C643        H649   1.106       .  S
C646        H650   1.110       .  S
C646        H652   1.111       .  S
C653        C654   1.403   1_565  A
C653        C658   1.406       .  A
C653        H660   1.084       .  S
C654        C655   1.412       .  A
C655        C656   1.403       .  A
C655        C662   1.508       .  S
C656        C657   1.405       .  A
C656        H661   1.084       .  S
C657        C658   1.417   1_545  A
C658        C659   1.508       .  S
C659        H663   1.111       .  S
C659        H664   1.111       .  S
C659        H665   1.109       .  S
C662        H666   1.110       .  S
C662        H667   1.108       .  S
C662        H668   1.111       .  S
C669        C670   1.405   1_545  A
C669        C674   1.402       .  A
C669        H676   1.084       .  S
C670        C671   1.419       .  A
C671        C672   1.407       .  A
C671        C678   1.508       .  S
C672        C673   1.402       .  A
C672        H677   1.084       .  S
C673        C674   1.413   1_565  A
C674        C675   1.508       .  S
C675        H679   1.111       .  S
C675        H680   1.110       .  S
C675        H681   1.109       .  S
C678        H682   1.111       .  S
C678        H683   1.110       .  S
C678        H684   1.111       .  S
C685        C690   1.406       .  A
C685        H692   1.083       .  S
C686        C687   1.421       .  A
C687        C688   1.402       .  A
C687        C694   1.509       .  S
C688        C689   1.402       .  A
C688        H693   1.083       .  S
C690        C691   1.508       .  S
C691        H695   1.111       .  S
C691        H697   1.109       .  S
C694        H698   1.110       .  S
C694        H700   1.111       .  S
C701        C702   1.411       .  A
C701        C706   1.407       .  A
C701        H708   1.083       .  S
C702        C703   1.426       .  A
C703        C704   1.407       .  A
C703        C710   1.508       .  S
C704        C705   1.398       .  A
C704        H709   1.084       .  S
C705        C706   1.409       .  A
C706        C707   1.507       .  S
C707        H711   1.111       .  S
C707        H712   1.110       .  S
C707        H713   1.111       .  S
C710        H714   1.110       .  S
C710        H715   1.110       .  S
C710        H716   1.111       .  S
C717        C718   1.401       .  A
C717        C722   1.404       .  A
C717        H724   1.085       .  S
C718        C719   1.409       .  A
C719        C720   1.404       .  A
C719        C726   1.508       .  S
C720        C721   1.409       .  A
C720        H725   1.084       .  S
C721        C722   1.420       .  A
C722        C723   1.508       .  S
C723        H727   1.111       .  S
C723        H728   1.110       .  S
C723        H729   1.109       .  S
C726        H730   1.110       .  S
C726        H731   1.109       .  S
C726        H732   1.111       .  S
C733        C734   1.397       .  A
C733        C738   1.400       .  A
C733        H740   1.069       .  S
C735        C736   1.410       .  A
C735        C742   1.506       .  S
C736        H741   1.082       .  S
C737        C738   1.423       .  A
C738        C739   1.509       .  S
C739        H743   1.110       .  S
C739        H745   1.110       .  S
C742        H746   1.109       .  S
C742        H748   1.110       .  S
C749        C750   1.411       .  A
C749        C754   1.406       .  A
C749        H756   1.083       .  S
C750        C751   1.424       .  A
C751        C752   1.404       .  A
C751        C758   1.509       .  S
C752        C753   1.399       .  A
C752        H757   1.085       .  S
C753        C754   1.408       .  A
C754        C755   1.507       .  S
C755        H759   1.111       .  S
C755        H760   1.110       .  S
C755        H761   1.110       .  S
C758        H762   1.110       .  S
C758        H763   1.110       .  S
C758        H764   1.111       .  S
C765        C766   1.400       .  A
C765        C770   1.412       .  A
C765        H772   1.084       .  S
C766        C767   1.410       .  A
C767        C768   1.401       .  A
C767        C774   1.508       .  S
C768        C769   1.409       .  A
C768        H773   1.083       .  S
C769        C770   1.425       .  A
C770        C771   1.507       .  S
C771        H775   1.111       .  S
C771        H776   1.110       .  S
C771        H777   1.110       .  S
C774        H778   1.108       .  S
C774        H779   1.109       .  S
C774        H780   1.111       .  S
