geometry optimzed in LAMMPS
_audit_creation_date              2020-11-30 
_audit_creation_method            'lammps2cif' 
_symmetry_space_group_name_H-M    'P1' 
_symmetry_Int_Tables_number       1 
_symmetry_cell_setting            triclinic 
loop_ 
_symmetry_equiv_pos_as_xyz 
  x,y,z 
_cell_length_a                    27.97179027 
_cell_length_b                    29.322367330292124 
_cell_length_c                    33.96377339073626 
_cell_angle_alpha                 91.7719638929203 
_cell_angle_beta                  87.09700228232462 
_cell_angle_gamma                 118.46317173604193 
loop_ 
_atom_site_label 
_atom_site_type_symbol 
_atom_site_fract_x 
_atom_site_fract_y 
_atom_site_fract_z 
_atom_site_charge 
O1          O  0.40102296  0.22905652  0.54410842    -0.81700
C2          C  0.26974879  0.05251061  0.44821725     0.97600
O3          O  0.31001238  0.05821867  0.46746353    -0.70900
O4          O  0.40438118  0.14463578  0.45495212    -0.74400
Al5        Al  0.36043280  0.11473008  0.50100830     1.49000
C6          C  0.43491376  0.19210671  0.44789230     0.92900
O7          O  0.33398477  0.22564237  0.44873478    -0.80700
O8          O  0.24966083  0.15975958  0.54572088    -0.74200
Al9        Al  0.36499796  0.22296140  0.49675680     1.90100
O10         O  0.24848937  0.17257338  0.46486269    -0.73300
O11         O  0.23988814  0.06495885  0.53375161    -0.73100
O12         O  0.24866896  0.08189150  0.45475557    -0.78800
O13         O  0.32137124  0.07843587  0.54713745    -0.77000
O14         O  0.32627519  0.15323709  0.49925099    -1.13100
O15         O  0.41796715  0.16342010  0.53497149    -0.72300
C16         C  0.42720023  0.20570506  0.55239038     0.98400
C17         C  0.28392980  0.20813635  0.44296002     0.94800
Al18       Al  0.25323768  0.12262745  0.49980220     1.55600
O19         O  0.42660446  0.22611197  0.46594133    -0.77000
C20         C  0.27040569  0.05356361  0.55282062     0.98900
C21         C  0.27323989  0.20845920  0.55012164     0.93800
O22         O  0.31321765  0.23716005  0.52765882    -0.82300
N23         N  0.13929444  0.17431213  0.06159543    -0.36500
N24         N  0.18093275  0.12133626  0.00769252    -0.57100
N25         N  0.15760418  0.17248465  0.94847615    -0.36500
N26         N  0.11715534  0.22642626  0.99972834    -0.57100
C27         C  0.16094685  0.15414692  0.08617380     0.27000
C28         C  0.13273088  0.21165503  0.08204995     0.27000
C29         C  0.18963730  0.15633640  0.92841562     0.27000
C30         C  0.15443643  0.20763814  0.92565718     0.27000
C31         C  0.17610296  0.09416634  0.04016969     0.35700
C32         C  0.18787462  0.09505408  0.97657209     0.35700
C33         C  0.09236413  0.23849997  0.02991045     0.35700
C34         C  0.09454011  0.22968707  0.96657386     0.35700
C35         C  0.16832352  0.17911237  0.12232345    -0.21800
C36         C  0.15073656  0.21488973  0.11994298    -0.21800
C37         C  0.20736745  0.18190296  0.89298667    -0.21800
C38         C  0.18667499  0.21558075  0.89162020    -0.21800
C39         C  0.18166793  0.05067531  0.02984092    -0.22900
C40         C  0.18936758  0.05143283  0.98922657    -0.22900
C41         C  0.05553988  0.25240434  0.01592934    -0.22900
C42         C  0.05574493  0.24541867  0.97553803    -0.22900
C43         C  0.16920573  0.11034777  0.07865341    -0.18200
C44         C  0.10407237  0.23748213  0.06946512    -0.18200
C45         C  0.11116572  0.21929664  0.92919001    -0.18200
C46         C  0.19410760  0.11215161  0.93748054    -0.18200
H47         H  0.18225466  0.17067981  0.14877221     0.14700
H48         H  0.14881851  0.23785134  0.14476683     0.14700
H49         H  0.22860729  0.17309782  0.86910436     0.14700
H50         H  0.18875009  0.23775870  0.86617563     0.14700
H51         H  0.18055258  0.02172136  0.04940670     0.13000
H52         H  0.19593543  0.02375307  0.97119037     0.13000
H53         H  0.02948929  0.26381024  0.03315726     0.13000
H54         H  0.03005948  0.25101536  0.95566290     0.13000
H55         H  0.12221180  0.15789741  0.03492589     0.26200
H56         H  0.12946248  0.15203802  0.97102376     0.26200
N57         N  0.33519577  0.49647604  0.94596318    -0.36500
N58         N  0.32661540  0.41126968  0.99487653    -0.57100
N59         N  0.39864050  0.48830160  0.04656133    -0.36500
N60         N  0.41993679  0.07354235  0.99493635    -0.57100
C61         C  0.30473966  0.45496349  0.92305963     0.27000
C62         C  0.35390553  0.03893645  0.92278353     0.27000
C63         C  0.39854151  0.44524742  0.05946004     0.27000
C64         C  0.44322927  0.02932396  0.06015889     0.27000
C65         C  0.28853297  0.38299863  0.96883765     0.35700
C66         C  0.31838804  0.38040441  0.02602086     0.35700
C67         C  0.41431706  0.10536522  0.96996310     0.35700
C68         C  0.43552089  0.09940926  0.02946588     0.35700
C69         C  0.30066637  0.47194956  0.88632167    -0.21800
C70         C  0.33064507  0.02439982  0.88634407    -0.21800
C71         C  0.44491699  0.45942240  0.08060976    -0.21200
C72         C  0.47285183  0.01255794  0.08125363    -0.21800
C73         C  0.25690755  0.33294879  0.98264356    -0.22900
C74         C  0.27499577  0.33160657  0.01954176    -0.22900
C75         C  0.42805264  0.15261532  0.98808242    -0.22900
C76         C  0.43977464  0.14815643  0.02639736    -0.22900
C77         C  0.28343510  0.40170953  0.93237304    -0.18200
C78         C  0.39353160  0.09038444  0.93210966    -0.18200
C79         C  0.44889739  0.07935300  0.06198579    -0.18200
C80         C  0.35223418  0.39587978  0.05878092    -0.18200
H81         H  0.28027723  0.44889347  0.86104802     0.14700
H82         H  0.33620273  0.04861195  0.86138425     0.14700
H83         H  0.45781589  0.43523869  0.09510116     0.14700
H84         H  0.50956306  0.03589810  0.09689296     0.14700
H85         H  0.22361129  0.30134136  0.96803324     0.13000
H86         H  0.25925983  0.29833059  0.03874153     0.13000
H87         H  0.42677940  0.18561658  0.97584879     0.13000
H88         H  0.45055260  0.17760499  0.04888559     0.13000
H89         H  0.34387682  0.49557594  0.97505448     0.26200
H90         H  0.36502959  0.49007501  0.03642216     0.26200
N91         N  0.49817216  0.37737120  0.95300075    -0.36500
N92         N  0.41270417  0.30416305  0.99982079    -0.57100
N93         N  0.49870889  0.33273671  0.05794533    -0.36500
N94         N  0.08607194  0.41380484  0.00824103    -0.57100
C95         C  0.45375095  0.37128138  0.93486069     0.27000
C96         C  0.04096211  0.42074577  0.93890971     0.27000
C97         C  0.45181001  0.30272132  0.07896295     0.27000
C98         C  0.03796034  0.36054018  0.08413678     0.27000
C99         C  0.38876962  0.28934928  0.96464362     0.35700
C100        C  0.38688122  0.26385978  0.02452408     0.35700
C101        C  0.11279568  0.41833246  0.97322624     0.35700
C102        C  0.11341215  0.40383955  0.03506970     0.35700
C103        C  0.46779355  0.41349290  0.91078096    -0.21800
C104        C  0.02322817  0.44405247  0.91262615    -0.21800
C105        C  0.46139616  0.31190403  0.11876281    -0.21800
C106        C  0.01491614  0.34716184  0.12202104    -0.21800
C107        C  0.34615725  0.23903162  0.96735825    -0.22900
C108        C  0.34424993  0.22332286  0.00572019    -0.22900
C109        C  0.15792152  0.41171763  0.97751146    -0.22900
C110        C  0.15849002  0.40249169  0.01698581    -0.22900
C111        C  0.40730799  0.32229835  0.93120549    -0.18200
C112        C  0.09348708  0.42577788  0.93806353    -0.18200
C113        C  0.09474781  0.39388389  0.07470187    -0.18200
C114        C  0.40117827  0.26459502  0.06392518    -0.18200
H115        H  0.44253390  0.41790270  0.88981011     0.14700
H116        H  0.04806360  0.47517250  0.89274037     0.14700
H117        H  0.43311295  0.29450800  0.14352298     0.14700
H118        H  0.03403579  0.35825750  0.14997862     0.14700
H119        H  0.31962998  0.21553355  0.94448442     0.13000
H120        H  0.31602062  0.18583113  0.01794443     0.13000
H121        H  0.18593424  0.41129043  0.95458792     0.13000
H122        H  0.18579460  0.39073352  0.02895463     0.13000
H123        H  0.50200360  0.34732756  0.96553693     0.26200
H124        H  0.50458272  0.33080672  0.02766039     0.26200
C125        C  0.47520635  0.20756523  0.41421623     0.02300
C126        C  0.02427084  0.25600597  0.41220137     0.02300
C127        C  0.04375481  0.27927723  0.37524490    -0.18200
C128        C  0.02035394  0.25198531  0.34093609     0.02300
C129        C  0.48139815  0.19914875  0.34314974     0.02300
C130        C  0.45711831  0.17797777  0.37955646    -0.18200
H131        H  0.42226962  0.13946407  0.38051770     0.04400
H132        H  0.07914587  0.31734768  0.37289543     0.04400
C133        C  0.26816945  0.22622781  0.40758369     0.02300
C134        C  0.24819977  0.26321480  0.40840971     0.02300
C135        C  0.24775404  0.28651106  0.37284123    -0.18200
C136        C  0.26289316  0.27185504  0.33670925     0.02300
C137        C  0.27531112  0.23051048  0.33514329     0.02300
C138        C  0.28011273  0.20969511  0.37053367    -0.18200
H139        H  0.29379628  0.18072695  0.36922642     0.04400
H140        H  0.23569404  0.31662993  0.37327651     0.04400
C141        C  0.46280400  0.22390042  0.58678041     0.02300
C142        C  0.02135807  0.25030791  0.58481706     0.02300
C143        C  0.04912504  0.25756657  0.61963531    -0.18200
C144        C  0.02127660  0.24064604  0.65568642     0.02300
C145        C  0.46414156  0.21948251  0.65869308     0.02300
C146        C  0.43539902  0.21066801  0.62418392    -0.18200
H147        H  0.39127909  0.19163001  0.62635893     0.04400
H148        H  0.09321195  0.27479677  0.61853941     0.04400
C149        C  0.26005923  0.23111235  0.58575731     0.02300
C150        C  0.23692758  0.26539625  0.58611140     0.02300
C151        C  0.22784444  0.28464438  0.62263248    -0.18200
C152        C  0.24306443  0.27252765  0.65782033     0.02300
C153        C  0.26992921  0.24226209  0.65699252     0.02300
C154        C  0.27680618  0.22074685  0.62132026    -0.18200
H155        H  0.29785599  0.19776360  0.62095746     0.04400
H156        H  0.20917130  0.30972362  0.62372071     0.04400
C157        C  0.21854172  0.46243759  0.58630469     0.02300
C158        C  0.24766485  0.01841089  0.58717651     0.02300
C159        C  0.25548008  0.04449871  0.62379281    -0.18200
C160        C  0.23539784  0.01737636  0.65902641     0.02300
C161        C  0.20713471  0.46278150  0.65809593     0.02300
C162        C  0.19894992  0.43602951  0.62228334    -0.18200
H163        H  0.17659542  0.39393426  0.62250462     0.04400
H164        H  0.27676681  0.08659760  0.62488535     0.04400
C165        C  0.23780727  0.46374301  0.41120430     0.02300
C166        C  0.25249163  0.01785223  0.41306392     0.02300
C167        C  0.25255908  0.04284761  0.37837192    -0.18200
C168        C  0.24160514  0.01709833  0.34227773     0.02300
C169        C  0.23414380  0.46608579  0.33946973     0.02300
C170        C  0.23128902  0.43955775  0.37383309    -0.18200
H171        H  0.22058395  0.39884519  0.37160615     0.04400
H172        H  0.26056866  0.08289254  0.37940069     0.04400
O173        O  0.24474513  0.40242739  0.45173689    -0.81700
C174        C  0.05810982  0.26898003  0.54909328     0.97600
O175        O  0.06447436  0.30867365  0.53074129    -0.70900
O176        O  0.15509078  0.39837404  0.54417366    -0.74400
Al177      Al  0.12479834  0.35965851  0.49747939     1.49000
C178        C  0.20470486  0.42756256  0.55089833     0.92900
O179        O  0.24097967  0.33117408  0.54476873    -0.80700
O180        O  0.17322676  0.25498343  0.44928710    -0.74200
Al181      Al  0.23847806  0.36440744  0.49805409     1.90100
O182        O  0.18452249  0.25055855  0.52906418    -0.73300
O183        O  0.07412035  0.24703323  0.46323735    -0.73100
O184        O  0.08971453  0.24998894  0.54169128    -0.78800
O185        O  0.08850909  0.32560548  0.45084373    -0.77000
O186        O  0.16551590  0.32715237  0.49698557    -1.13100
O187        O  0.17591604  0.41776697  0.46452191    -0.72300
C188        C  0.22004281  0.42792711  0.44546082     0.98400
C189        C  0.22120451  0.28302640  0.55067411     0.94800
Al190      Al  0.13343363  0.25720435  0.49581032     1.55600
O191        O  0.24108148  0.42116061  0.53166119    -0.77000
C192        C  0.06279205  0.27721774  0.44475892     0.98900
C193        C  0.22432843  0.27777856  0.44364724     0.93800
O194        O  0.25391301  0.31717525  0.46430242    -0.82300
C195        C  0.31599275  0.26181791  0.84283460    -0.10800
C196        C  0.35441224  0.27526931  0.81118472     0.06400
C197        C  0.40928570  0.30567529  0.81944389    -0.09500
C198        C  0.42526418  0.31838984  0.85806290    -0.11200
C199        C  0.38729088  0.30421217  0.89026272    -0.01000
C200        C  0.33202731  0.27617321  0.88197391    -0.10100
C201        C  0.33711918  0.26105072  0.76964423     0.06400
H202        H  0.44056689  0.31987938  0.79618059     0.08300
H203        H  0.46795450  0.34110846  0.86224363     0.11800
H204        H  0.30153676  0.26848170  0.90532468     0.12000
H205        H  0.27362520  0.24445881  0.83631603     0.08300
C206        C  0.28971547  0.21476039  0.76076999    -0.10800
C207        C  0.27021184  0.20503665  0.72249226    -0.10100
C208        C  0.29821857  0.24096745  0.69239599    -0.01000
C209        C  0.34798690  0.28445806  0.70028780    -0.11200
C210        C  0.36678877  0.29487360  0.73849522    -0.09600
H211        H  0.26640915  0.18714480  0.78371209     0.08300
H212        H  0.23119982  0.17175053  0.71708298     0.12000
H213        H  0.36963088  0.31310422  0.67760171     0.11800
H214        H  0.40289918  0.33121723  0.74377069     0.08300
C215        C  0.20517546  0.42183476  0.76081061    -0.10800
C216        C  0.15676851  0.41995067  0.77590623     0.06400
C217        C  0.12001716  0.42133551  0.74983466    -0.09500
C218        C  0.13364231  0.42878971  0.70966061    -0.11200
C219        C  0.18384000  0.43439130  0.69508966    -0.01000
C220        C  0.21820497  0.42809981  0.72043619    -0.10100
C221        C  0.14479310  0.41783748  0.81875274     0.06400
H222        H  0.08238821  0.42007895  0.76083360     0.08300
H223        H  0.10727581  0.93470997  0.69053564     0.11800
H224        H  0.25782963  0.43411170  0.70961341     0.12000
H225        H  0.23396925  0.42105976  0.78050626     0.08300
C226        C  0.09282634  0.38337217  0.83334907    -0.10800
C227        C  0.08034967  0.38153465  0.87343066    -0.10100
C228        C  0.11604447  0.41957882  0.89896047    -0.01000
C229        C  0.16912987  0.45318855  0.88505865    -0.11200
C230        C  0.18382292  0.45125556  0.84512610    -0.09600
H231        H  0.06174554  0.35803895  0.81359831     0.08300
H232        H  0.04157438  0.35187249  0.88471133     0.12000
H233        H  0.19811370  0.48201246  0.90440446     0.11800
H234        H  0.22429511  0.47831763  0.83423477     0.08300
C235        C  0.13499619  0.44799391  0.17598855    -0.10800
C236        C  0.18083888  0.44149113  0.18109171     0.06400
C237        C  0.20874246  0.43621564  0.14722403    -0.09500
C238        C  0.18413605  0.42536635  0.11071348    -0.11200
C239        C  0.13278844  0.42263873  0.10735595    -0.01000
C240        C  0.11435715  0.44323288  0.13875888    -0.10100
C241        C  0.19587124  0.43584325  0.22142165     0.06400
H242        H  0.24624223  0.43459931  0.14953092     0.08300
H243        H  0.20349929  0.41455329  0.08707838     0.11800
H244        H  0.07876688  0.44831373  0.13600932     0.12000
H245        H  0.11410484  0.45556418  0.20090489     0.08300
C246        C  0.15480577  0.41157703  0.25102694    -0.10800
C247        C  0.16790411  0.41295483  0.29026681    -0.10100
C248        C  0.22229904  0.43962319  0.30067849    -0.01000
C249        C  0.26355027  0.45731041  0.27076780    -0.11200
C250        C  0.25044876  0.45555454  0.23129936    -0.09600
H251        H  0.11228680  0.39424644  0.24429657     0.08300
H252        H  0.13550322  0.89921784  0.31288317     0.12000
H253        H  0.30586406  0.47845972  0.27836321     0.11800
H254        H  0.28314899  0.47390323  0.20929760     0.08300
C255        C  0.29564910  0.22401789  0.14529642    -0.10800
C256        C  0.31684258  0.20219962  0.17099324     0.06400
C257        C  0.35438954  0.18682409  0.15545134    -0.09500
C258        C  0.37506204  0.19847042  0.11663146    -0.11200
C259        C  0.36020260  0.22785767  0.09312393    -0.01000
C260        C  0.31638744  0.23583435  0.10631042    -0.10100
C261        C  0.30496127  0.20138492  0.21436100     0.06400
H262        H  0.37104738  0.16963551  0.17416863     0.08300
H263        H  0.40834395  0.19134922  0.10710837     0.11800
H264        H  0.30329313  0.25742962  0.08841852     0.12000
H265        H  0.26754399  0.23726769  0.15656608     0.08300
C266        C  0.34773713  0.22128158  0.24069818    -0.10800
C267        C  0.33776504  0.22678151  0.28101585    -0.10100
C268        C  0.28468458  0.21099929  0.29600016    -0.01000
C269        C  0.24148864  0.18726769  0.27025969    -0.11200
C270        C  0.25167326  0.18426859  0.22971442    -0.09600
H271        H  0.38928499  0.23546050  0.22969523     0.08300
H272        H  0.37164189  0.24631683  0.30012422     0.12000
H273        H  0.20013549  0.17510274  0.28111455     0.11800
H274        H  0.21790949  0.16918056  0.21034562     0.08300
C275        C  0.40695638  0.09885536  0.16503733    -0.10800
C276        C  0.45618395  0.11999518  0.18476696     0.06400
C277        C  0.50433783  0.13119161  0.16236329    -0.09500
C278        C  0.50288352  0.12114054  0.12174038    -0.11200
C279        C  0.45396647  0.10194279  0.10217492    -0.01000
C280        C  0.40608984  0.09108704  0.12423988    -0.10100
C281        C  0.45740590  0.13184925  0.22803410     0.06400
H282        H  0.54335453  0.14803758  0.17592235     0.08300
H283        H  0.53964740  0.12719172  0.10560635     0.11800
H284        H  0.36733502  0.07350016  0.11015679     0.12000
H285        H  0.36857939  0.08704834  0.18112278     0.08300
C286        C  0.41944670  0.14539899  0.24620399    -0.10800
C287        C  0.42374737  0.16210731  0.28537204    -0.10100
C288        C  0.46677223  0.16673226  0.30711078    -0.01000
C289        C  0.50282631  0.15016635  0.29042450    -0.11200
C290        C  0.49795269  0.13243893  0.25135345    -0.09600
H291        H  0.38784512  0.14583148  0.22992472     0.08300
H292        H  0.39586053  0.17497406  0.29788938     0.12000
H293        H  0.53664636  0.15385547  0.30693506     0.11800
H294        H  0.52703521  0.12078974  0.23924480     0.08300
C295        C  0.44299324  0.12588732  0.82842399    -0.10800
C296        C  0.42362035  0.16048776  0.82005112     0.06400
C297        C  0.40575828  0.18154505  0.85173332    -0.09500
C298        C  0.40185504  0.16393103  0.89039918    -0.11200
C299        C  0.41774894  0.12644902  0.89804670    -0.01000
C300        C  0.44244909  0.11099700  0.86712304    -0.10100
C301        C  0.42254178  0.17437002  0.77838084     0.06400
H302        H  0.39052032  0.20822200  0.84616562     0.08300
H303        H  0.38242519  0.17633198  0.91346955     0.11800
H304        H  0.45492749  0.08196640  0.87221972     0.12000
H305        H  0.45797292  0.10968075  0.80492072     0.08300
C306        C  0.44383424  0.22637832  0.76788880    -0.10800
C307        C  0.44915522  0.24066554  0.72832893    -0.10100
C308        C  0.43573343  0.20318535  0.69812750    -0.01000
C309        C  0.41106721  0.15064920  0.70852640    -0.11200
C310        C  0.40514770  0.13645362  0.74828386    -0.09600
H311        H  0.46158608  0.25611799  0.79010040     0.08300
H312        H  0.96993710  0.28152461  0.72110295     0.12000
H313        H  0.40180776  0.12112650  0.68588484     0.11800
H314        H  0.39002701  0.09605926  0.75537189     0.08300
C315        C  0.20091044  0.27639656  0.76369602    -0.10800
C316        C  0.24198717  0.32502607  0.77538433     0.06400
C317        C  0.27847848  0.35898005  0.74667168    -0.09500
C318        C  0.27465187  0.34402774  0.70704124    -0.11200
C319        C  0.23510516  0.29447180  0.69571849    -0.01000
C320        C  0.19718268  0.26131595  0.72406421    -0.10100
C321        C  0.24962926  0.33864577  0.81766519     0.06400
H322        H  0.31076389  0.39665176  0.75507551     0.08300
H323        H  0.30510122  0.36949795  0.68569807     0.11800
H324        H  0.16757892  0.22224499  0.71596202     0.12000
H325        H  0.17396334  0.24896034  0.78555038     0.08300
C326        C  0.20615119  0.33351659  0.84307318    -0.10800
C327        C  0.21454479  0.34757882  0.88300835    -0.10100
C328        C  0.26658987  0.36626199  0.89789247    -0.01000
C329        C  0.30921783  0.36941889  0.87257969    -0.11200
C330        C  0.30125827  0.35726242  0.83275599    -0.09600
H331        H  0.16674095  0.32149093  0.83137551     0.08300
H332        H  0.18187171  0.34781118  0.90134537     0.12000
H333        H  0.35009071  0.38628692  0.88300185     0.11800
H334        H  0.33569153  0.36259420  0.81365512     0.08300
C335        C  0.27059985  0.35226031  0.15476857    -0.10800
C336        C  0.30578305  0.34425960  0.17818140     0.06400
C337        C  0.35275379  0.34568356  0.16012860    -0.09500
C338        C  0.36478137  0.35647310  0.11992814    -0.11200
C339        C  0.33195659  0.36861036  0.09725375    -0.01000
C340        C  0.28395645  0.36502223  0.11492689    -0.10100
C341        C  0.29285596  0.33312327  0.22095839     0.06400
H342        H  0.37960419  0.33742565  0.17689877     0.08300
H343        H  0.40016631  0.35608643  0.10654859     0.11800
H344        H  0.25867946  0.37532832  0.09830381     0.12000
H345        H  0.23418834  0.35119387  0.16787035     0.08300
C346        C  0.33417823  0.35382337  0.24836224    -0.10800
C347        C  0.32288305  0.33801204  0.28770661    -0.10100
C348        C  0.27001664  0.30174605  0.30045244    -0.01000
C349        C  0.22784443  0.28459341  0.27401606    -0.11200
C350        C  0.23939326  0.29942040  0.23442947    -0.09600
H351        H  0.37567125  0.38048651  0.23900394     0.08300
H352        H  0.35613986  0.35108233  0.30753659     0.12000
H353        H  0.18727910  0.25524972  0.28292632     0.11800
H354        H  0.20747257  0.28138589  0.21361706     0.08300
C355        C  0.02155877  0.25045119  0.15458996    -0.10800
C356        C  0.06402845  0.28622672  0.17735616     0.06400
C357        C  0.11573330  0.31480408  0.15957710    -0.09500
C358        C  0.12632807  0.30513947  0.12067913    -0.11200
C359        C  0.08631333  0.26398671  0.10001508    -0.01000
C360        C  0.03285649  0.23950910  0.11591649    -0.10100
C361        C  0.05734584  0.28784327  0.22052136     0.06400
H362        H  0.14890904  0.34107016  0.17712122     0.08300
H363        H  0.16770568  0.32375856  0.10892997     0.11800
H364        H  0.00127379  0.20833442  0.10016947     0.12000
H365        H  0.98101628  0.22792329  0.16764557     0.08300
C366        C  0.01270576  0.29054192  0.23867948    -0.10800
C367        C  0.00390224  0.28505662  0.27951076    -0.10100
C368        C  0.03940252  0.27640744  0.30220226    -0.01000
C369        C  0.08613733  0.27789119  0.28449292    -0.11200
C370        C  0.09472509  0.28304885  0.24386858    -0.09600
H371        H  0.98397352  0.29503280  0.22115833     0.08300
H372        H  0.96739031  0.28360446  0.29306703     0.12000
H373        H  0.11311824  0.27035102  0.30167599     0.11800
H374        H  0.12877880  0.28006506  0.23035212     0.08300
C375        C  0.06123415  0.25399232  0.83953198    -0.10800
C376        C  0.06574219  0.21918193  0.81208459     0.06400
C377        C  0.07059921  0.17736043  0.82646438    -0.09500
C378        C  0.07458043  0.17302826  0.86656601    -0.11200
C379        C  0.08213009  0.21418669  0.89248237    -0.01000
C380        C  0.07263158  0.25362387  0.87907584    -0.10100
C381        C  0.06561285  0.22666604  0.76897328     0.06400
H382        H  0.07312491  0.14863717  0.80704049     0.08300
H383        H  0.07915713  0.14062305  0.87656354     0.11800
H384        H  0.07755188  0.28574477  0.89801651     0.12000
H385        H  0.05155715  0.28290003  0.82994642     0.08300
C386        C  0.08417127  0.27662744  0.75341631    -0.10800
C387        C  0.07647381  0.28276880  0.71402734    -0.10100
C388        C  0.05079126  0.23906940  0.68980405    -0.01000
C389        C  0.03987782  0.19040373  0.70345916    -0.11200
C390        C  0.04622307  0.18399089  0.74287414    -0.09600
H391        H  0.10246698  0.31069410  0.77200466     0.08300
H392        H  0.08559344  0.32061658  0.70355142     0.12000
H393        H  0.02017245  0.15634891  0.68480109     0.11800
H394        H  0.03181958  0.14490022  0.75304953     0.08300
C395        C  0.16680248  0.05303391  0.83747815    -0.10800
C396        C  0.21993977  0.06993151  0.82160079     0.06400
C397        C  0.26311877  0.09057861  0.84766839    -0.09500
C398        C  0.25379123  0.09661839  0.88801468    -0.11200
C399        C  0.20123245  0.08335951  0.90296226    -0.01000
C400        C  0.15783411  0.06030691  0.87744683    -0.10100
C401        C  0.22991325  0.06546381  0.77826790     0.06400
H402        H  0.30446027  0.10462071  0.83651736     0.08300
H403        H  0.28799547  0.11647930  0.90675826     0.11800
H404        H  0.11781445  0.05350213  0.88770720     0.12000
H405        H  0.13209260  0.03558148  0.81891489     0.08300
C406        C  0.19572253  0.06872786  0.75061162    -0.10800
C407        C  0.20113386  0.05835433  0.71056761    -0.10100
C408        C  0.24136256  0.04536416  0.69720329    -0.01000
C409        C  0.27849417  0.04660503  0.72396081    -0.11200
C410        C  0.27231396  0.05565264  0.76413455    -0.09600
H411        H  0.16360763  0.07775661  0.75996060     0.08300
H412        H  0.17165087  0.05705316  0.69046555     0.12000
H413        H  0.30908892  0.03558584  0.71430903     0.11800
H414        H  0.29867490  0.05156688  0.78433885     0.08300
C415        C  0.23282607  0.07343537  0.15867584    -0.10800
C416        C  0.19538060  0.06558207  0.19067918     0.06400
C417        C  0.14504682  0.06257478  0.18237017    -0.09500
C418        C  0.13363696  0.06914864  0.14415078    -0.11200
C419        C  0.17389896  0.08373003  0.11373521    -0.01000
C420        C  0.22284255  0.08386834  0.12089454    -0.10100
C421        C  0.20817497  0.05982204  0.23212633     0.06400
H422        H  0.11468690  0.05715833  0.20528661     0.08300
H423        H  0.09547394  0.06877569  0.13922671     0.11800
H424        H  0.25455225  0.09489463  0.09790093     0.12000
H425        H  0.27072188  0.07310064  0.16263617     0.08300
C426        C  0.26241124  0.07844123  0.24304802    -0.10800
C427        C  0.27413150  0.06913579  0.28057138    -0.10100
C428        C  0.23193946  0.04118974  0.30806484    -0.01000
C429        C  0.17828948  0.02634686  0.29886213    -0.11200
C430        C  0.16639447  0.03502006  0.26131111    -0.09600
H431        H  0.29602098  0.09925275  0.22246007     0.08300
H432        H  0.31567019  0.08026355  0.28721840     0.12000
H433        H  0.14511755  0.00404302  0.31971641     0.11800
H434        H  0.12395555  0.01909529  0.25502399     0.08300
O435        O  0.40102310  0.72905677  0.54410786    -0.81700
C436        C  0.26974955  0.55251041  0.44821706     0.97600
O437        O  0.31001309  0.55821859  0.46746345    -0.70900
O438        O  0.40438169  0.64463598  0.45495156    -0.74400
Al439      Al  0.36043347  0.61473039  0.50100793     1.49000
C440        C  0.43491426  0.69210694  0.44789176     0.92900
O441        O  0.33398495  0.72564224  0.44873415    -0.80700
O442        O  0.24966099  0.65975949  0.54572019    -0.74200
Al443      Al  0.36499819  0.72296145  0.49675620     1.90100
O444        O  0.24848960  0.67257303  0.46486200    -0.73300
O445        O  0.23988884  0.56495900  0.53375131    -0.73100
O446        O  0.24866963  0.58189125  0.45475520    -0.78800
O447        O  0.32137208  0.57843649  0.54713727    -0.77000
O448        O  0.32627562  0.65323716  0.49925047    -1.13100
O449        O  0.41796785  0.66342072  0.53497091    -0.72300
C450        C  0.42720062  0.70570557  0.55238982     0.98400
C451        C  0.28392996  0.70813625  0.44295945     0.94800
Al452      Al  0.25323810  0.62262731  0.49980167     1.55600
O453        O  0.42660486  0.72611216  0.46594079    -0.77000
C454        C  0.27040652  0.55356407  0.55282045     0.98900
C455        C  0.27323988  0.70845911  0.55012089     0.93800
O456        O  0.31321771  0.73715999  0.52765814    -0.82300
N457        N  0.13929537  0.67431199  0.06159569    -0.36500
N458        N  0.18093381  0.62133638  0.00769271    -0.57100
N459        N  0.15760522  0.67248499  0.94847627    -0.36500
N460        N  0.11715632  0.72642637  0.99972861    -0.57100
C461        C  0.16094764  0.65414662  0.08617404     0.27000
C462        C  0.13273196  0.71165495  0.08205022     0.27000
C463        C  0.18963820  0.65633668  0.92841566     0.27000
C464        C  0.15443709  0.70763828  0.92565734     0.27000
C465        C  0.17610383  0.59416624  0.04016981     0.35700
C466        C  0.18787567  0.59505431  0.97657219     0.35700
C467        C  0.09236526  0.73850010  0.02991079     0.35700
C468        C  0.09454086  0.72968711  0.96657423     0.35700
C469        C  0.16832429  0.67911198  0.12232372    -0.21800
C470        C  0.15073757  0.71488951  0.11994324    -0.21800
C471        C  0.20736784  0.68190303  0.89298656    -0.21800
C472        C  0.18667536  0.71558082  0.89162020    -0.21800
C473        C  0.18166857  0.55067514  0.02984090    -0.22900
C474        C  0.18936831  0.55143284  0.98922655    -0.22900
C475        C  0.05554097  0.75240452  0.01592984    -0.22900
C476        C  0.05574577  0.74541880  0.97553853    -0.22900
C477        C  0.16920640  0.61034742  0.07865359    -0.18200
C478        C  0.10407365  0.73748224  0.06946540    -0.18200
C479        C  0.11116627  0.71929663  0.92919033    -0.18200
C480        C  0.19410883  0.61215204  0.93748064    -0.18200
H481        H  0.18225547  0.67067938  0.14877244     0.14700
H482        H  0.14881969  0.73785125  0.14476704     0.14700
H483        H  0.22860739  0.67309778  0.86910411     0.14700
H484        H  0.18875018  0.73775864  0.86617562     0.14700
H485        H  0.18055295  0.52172098  0.04940659     0.13000
H486        H  0.19593592  0.52375299  0.97119026     0.13000
H487        H  0.02949057  0.76381057  0.03315787     0.13000
H488        H  0.03006031  0.75101558  0.95566348     0.13000
H489        H  0.12221270  0.65789734  0.03492613     0.26200
H490        H  0.12946349  0.65203820  0.97102398     0.26200
N491        N  0.33519669  0.99647588  0.94596343    -0.36500
N492        N  0.32661662  0.91126955  0.99487632    -0.57100
N493        N  0.39864089  0.98830153  0.04656169    -0.36500
N494        N  0.41993665  0.57354244  0.99493565    -0.57100
C495        C  0.30474074  0.95496345  0.92305962     0.27000
C496        C  0.35390484  0.53893643  0.92278313     0.27000
C497        C  0.39854254  0.94524737  0.05945977     0.27000
C498        C  0.44322867  0.52932405  0.06015869     0.27000
C499        C  0.28853461  0.88299836  0.96883722     0.35700
C500        C  0.31838950  0.88040409  0.02602048     0.35700
C501        C  0.41431679  0.60536523  0.96996240     0.35700
C502        C  0.43552061  0.59940938  0.02946518     0.35700
C503        C  0.30066737  0.97194970  0.88632177    -0.21800
C504        C  0.33064426  0.52439964  0.88634372    -0.21800
C505        C  0.44491849  0.95942231  0.08060885    -0.21200
C506        C  0.47285062  0.51255804  0.08125422    -0.21800
C507        C  0.25690982  0.83294824  0.98264275    -0.22900
C508        C  0.27499789  0.83160594  0.01954101    -0.22900
C509        C  0.42805222  0.65261533  0.98808167    -0.22900
C510        C  0.43977426  0.64815653  0.02639661    -0.22900
C511        C  0.28343645  0.90170946  0.93237278    -0.18200
C512        C  0.39353129  0.59038436  0.93210898    -0.18200
C513        C  0.44889685  0.57935314  0.06198525    -0.18200
C514        C  0.35223541  0.89587964  0.05878066    -0.18200
H515        H  0.28027832  0.94889373  0.86104803     0.14700
H516        H  0.33620199  0.54861159  0.86138376     0.14700
H517        H  0.45781800  0.93523854  0.09509948     0.14700
H518        H  0.50956146  0.53589824  0.09689396     0.14700
H519        H  0.22361407  0.80134067  0.96803213     0.13000
H520        H  0.25926238  0.79832973  0.03874051     0.13000
H521        H  0.42677882  0.68561650  0.97584803     0.13000
H522        H  0.45055213  0.67760511  0.04888483     0.13000
H523        H  0.34387767  0.99557564  0.97505454     0.26200
H524        H  0.36502976  0.99007474  0.03642297     0.26200
N525        N  0.49817176  0.87737062  0.95300001    -0.36500
N526        N  0.41270366  0.80416283  0.99981987    -0.57100
N527        N  0.49870830  0.83273667  0.05794480    -0.36500
N528        N  0.08607233  0.91380514  0.00824144    -0.57100
C529        C  0.45375065  0.87128094  0.93485991     0.27000
C530        C  0.04096255  0.92074635  0.93891011     0.27000
C531        C  0.45180931  0.80272136  0.07896230     0.27000
C532        C  0.03796100  0.86054014  0.08413720     0.27000
C533        C  0.38876929  0.78934889  0.96464266     0.35700
C534        C  0.38688075  0.76385961  0.02452322     0.35700
C535        C  0.11279603  0.91833282  0.97322661     0.35700
C536        C  0.11341259  0.90383980  0.03507004     0.35700
C537        C  0.46779330  0.91349269  0.91078045    -0.21800
C538        C  0.02322841  0.94405287  0.91262656    -0.21800
C539        C  0.46139531  0.81190405  0.11876221    -0.21800
C540        C  0.01491701  0.84716171  0.12202148    -0.21800
C541        C  0.34615710  0.73903114  0.96735728    -0.22900
C542        C  0.34424966  0.72332251  0.00571929    -0.22900
C543        C  0.15792180  0.91171787  0.97751179    -0.22900
C544        C  0.15849037  0.90249187  0.01698610    -0.22900
C545        C  0.40730773  0.82229796  0.93120453    -0.18200
C546        C  0.09348752  0.92577843  0.93806393    -0.18200
C547        C  0.09474834  0.89388404  0.07470220    -0.18200
C548        C  0.40117760  0.76459510  0.06392442    -0.18200
H549        H  0.44253382  0.91790270  0.88980959     0.14700
H550        H  0.04806367  0.97517276  0.89274065     0.14700
H551        H  0.43311191  0.79450803  0.14352228     0.14700
H552        H  0.03403679  0.85825730  0.14997901     0.14700
H553        H  0.31963005  0.71553296  0.94448338     0.13000
H554        H  0.31602044  0.68583075  0.01794354     0.13000
H555        H  0.18593440  0.91129051  0.95458822     0.13000
H556        H  0.18579484  0.89073351  0.02895486     0.13000
H557        H  0.50200320  0.84732687  0.96553603     0.26200
H558        H  0.50458218  0.83080666  0.02765986     0.26200
C559        C  0.47520694  0.70756557  0.41421571     0.02300
C560        C  0.02427034  0.75600551  0.41220156     0.02300
C561        C  0.04375435  0.77927637  0.37524498    -0.18200
C562        C  0.02035340  0.75198415  0.34093628     0.02300
C563        C  0.48139873  0.69914968  0.34314916     0.02300
C564        C  0.45711891  0.67797836  0.37955583    -0.18200
H565        H  0.42227028  0.63946461  0.38051698     0.04400
H566        H  0.07914555  0.81734671  0.37289531     0.04400
C567        C  0.26816955  0.72622802  0.40758325     0.02300
C568        C  0.24820015  0.76321530  0.40840946     0.02300
C569        C  0.24775460  0.78651188  0.37284109    -0.18200
C570        C  0.26289362  0.77185601  0.33670903     0.02300
C571        C  0.27531132  0.73051127  0.33514285     0.02300
C572        C  0.28011268  0.70969543  0.37053312    -0.18200
H573        H  0.29379594  0.68072706  0.36922574     0.04400
H574        H  0.23569470  0.81663082  0.37327648     0.04400
C575        C  0.46280417  0.72390099  0.58677994     0.02300
C576        C  0.02135806  0.75030688  0.58481721     0.02300
C577        C  0.04912516  0.75756537  0.61963538    -0.18200
C578        C  0.02127689  0.74064537  0.65568662     0.02300
C579        C  0.46414133  0.71948289  0.65869257     0.02300
C580        C  0.43539897  0.71066850  0.62418335    -0.18200
H581        H  0.39127904  0.69163046  0.62635828     0.04400
H582        H  0.09321205  0.77479531  0.61853936     0.04400
C583        C  0.26005913  0.73111218  0.58575658     0.02300
C584        C  0.23692802  0.76539653  0.58611079     0.02300
C585        C  0.22784512  0.78464473  0.62263192    -0.18200
C586        C  0.24306497  0.77252772  0.65781971     0.02300
C587        C  0.26992909  0.74226155  0.65699175     0.02300
C588        C  0.27680573  0.72074620  0.62131947    -0.18200
H589        H  0.29785513  0.69776258  0.62095659     0.04400
H590        H  0.20917220  0.80972416  0.62372027     0.04400
C591        C  0.21854093  0.96243721  0.58630490     0.02300
C592        C  0.24766575  0.51841128  0.58717635     0.02300
C593        C  0.25548090  0.54449899  0.62379270    -0.18200
C594        C  0.23539843  0.51737653  0.65902626     0.02300
C595        C  0.20713421  0.96278130  0.65809614     0.02300
C596        C  0.19894928  0.93602917  0.62228358    -0.18200
H597        H  0.17659493  0.89393390  0.62250491     0.04400
H598        H  0.27676762  0.58659787  0.62488533     0.04400
C599        C  0.23780621  0.96374316  0.41120463     0.02300
C600        C  0.25249272  0.51785212  0.41306370     0.02300
C601        C  0.25256037  0.54284775  0.37837178    -0.18200
C602        C  0.24160629  0.51709861  0.34227758     0.02300
C603        C  0.23414268  0.96608553  0.33947008     0.02300
C604        C  0.23128790  0.93955773  0.37383352    -0.18200
H605        H  0.22058282  0.89884517  0.37160671     0.04400
H606        H  0.26057004  0.58289271  0.37940067     0.04400
O607        O  0.24474446  0.90242768  0.45173695    -0.81700
C608        C  0.05810972  0.76897933  0.54909335     0.97600
O609        O  0.06447380  0.80867283  0.53074142    -0.70900
O610        O  0.15509015  0.89837343  0.54417395    -0.74400
Al611      Al  0.12479772  0.85965816  0.49747962     1.49000
C612        C  0.20470420  0.92756223  0.55089853     0.92900
O613        O  0.24097950  0.83117432  0.54476845    -0.80700
O614        O  0.17322693  0.75498371  0.44928677    -0.74200
Al615      Al  0.23847776  0.86440772  0.49805396     1.90100
O616        O  0.18452295  0.75055871  0.52906364    -0.73300
O617        O  0.07412041  0.74703319  0.46323728    -0.73100
O618        O  0.08971482  0.74998870  0.54169122    -0.78800
O619        O  0.08850838  0.82560527  0.45084392    -0.77000
O620        O  0.16551566  0.82715237  0.49698549    -1.13100
O621        O  0.17591523  0.91776701  0.46452230    -0.72300
C622        C  0.22004201  0.92792734  0.44546112     0.98400
C623        C  0.22120476  0.78302664  0.55067364     0.94800
Al624      Al  0.13343380  0.75720439  0.49581009     1.55600
O625        O  0.24108097  0.92116070  0.53166121    -0.77000
C626        C  0.06279165  0.77721752  0.44475903     0.98900
C627        C  0.22432862  0.77777896  0.44364697     0.93800
O628        O  0.25391301  0.81717580  0.46430211    -0.82300
C629        C  0.31599260  0.76181736  0.84283363    -0.10800
C630        C  0.35441208  0.77526885  0.81118376     0.06400
C631        C  0.40928548  0.80567514  0.81944296    -0.09500
C632        C  0.42526402  0.81838986  0.85806194    -0.11200
C633        C  0.38729072  0.80421193  0.89026174    -0.01000
C634        C  0.33202718  0.77617276  0.88197292    -0.10100
C635        C  0.33711906  0.76105008  0.76964326     0.06400
H636        H  0.44056667  0.81987932  0.79617969     0.08300
H637        H  0.46795435  0.84110873  0.86224264     0.11800
H638        H  0.30153667  0.76848117  0.90532371     0.12000
H639        H  0.27362502  0.74445809  0.83631509     0.08300
C640        C  0.28971521  0.71475981  0.76076912    -0.10800
C641        C  0.27021159  0.70503598  0.72249140    -0.10100
C642        C  0.29821850  0.74096658  0.69239504    -0.01000
C643        C  0.34798705  0.78445697  0.70028669    -0.11200
C644        C  0.36678883  0.79487271  0.73849413    -0.09600
H645        H  0.26640873  0.68714442  0.78371131     0.08300
H646        H  0.23119939  0.67175005  0.71708219     0.12000
H647        H  0.36963117  0.81310289  0.67760044     0.11800
H648        H  0.40289932  0.83121631  0.74376954     0.08300
C649        C  0.20517569  0.92183465  0.76081074    -0.10800
C650        C  0.15676884  0.91995066  0.77590658     0.06400
C651        C  0.12001731  0.92133542  0.74983514    -0.09500
C652        C  0.13364224  0.92878957  0.70966109    -0.11200
C653        C  0.18383983  0.93439117  0.69508992    -0.01000
C654        C  0.21820497  0.92809964  0.72043626    -0.10100
C655        C  0.14479357  0.91783762  0.81875316     0.06400
H656        H  0.08238840  0.92007892  0.76083415     0.08300
H657        H  0.10727603  0.43471012  0.69053502     0.11800
H658        H  0.25782954  0.93411145  0.70961328     0.12000
H659        H  0.23396960  0.92105962  0.78050626     0.08300
C660        C  0.09282681  0.88337243  0.83334957    -0.10800
C661        C  0.08035018  0.88153503  0.87343117    -0.10100
C662        C  0.11604493  0.91957932  0.89896089    -0.01000
C663        C  0.16913037  0.95318886  0.88505907    -0.11200
C664        C  0.18382340  0.95125567  0.84512654    -0.09600
H665        H  0.06174599  0.85803916  0.81359884     0.08300
H666        H  0.04157501  0.85187283  0.88471196     0.12000
H667        H  0.19811428  0.98201275  0.90440484     0.11800
H668        H  0.22429564  0.97831758  0.83423523     0.08300
C669        C  0.13499641  0.94799389  0.17598884    -0.10800
C670        C  0.18083904  0.94149101  0.18109200     0.06400
C671        C  0.20874285  0.93621582  0.14722432    -0.09500
C672        C  0.18413656  0.92536661  0.11071373    -0.11200
C673        C  0.13278896  0.92263901  0.10735621    -0.01000
C674        C  0.11435757  0.94323309  0.13875913    -0.10100
C675        C  0.19587100  0.93584271  0.22142194     0.06400
H676        H  0.24624270  0.93459964  0.14953121     0.08300
H677        H  0.20349985  0.91455361  0.08707861     0.11800
H678        H  0.07876726  0.94831388  0.13600955     0.12000
H679        H  0.11410493  0.95556398  0.20090520     0.08300
C680        C  0.15480524  0.91157642  0.25102705    -0.10800
C681        C  0.16790326  0.91295436  0.29026701    -0.10100
C682        C  0.22229812  0.93962272  0.30067892    -0.01000
C683        C  0.26354959  0.95730974  0.27076840    -0.11200
C684        C  0.25044841  0.95555382  0.23129987    -0.09600
H685        H  0.11228632  0.89424576  0.24429650     0.08300
H686        H  0.13550427  0.39921826  0.31288313     0.12000
H687        H  0.30586332  0.97845901  0.27836397     0.11800
H688        H  0.28314884  0.97390239  0.20929824     0.08300
C689        C  0.29564900  0.72401924  0.14529591    -0.10800
C690        C  0.31684192  0.70220026  0.17099258     0.06400
C691        C  0.35438824  0.68682400  0.15545051    -0.09500
C692        C  0.37506072  0.69847026  0.11663059    -0.11200
C693        C  0.36020175  0.72785799  0.09312317    -0.01000
C694        C  0.31638716  0.73583549  0.10630984    -0.10100
C695        C  0.30496080  0.70138562  0.21436038     0.06400
H696        H  0.37104554  0.66963482  0.17416773     0.08300
H697        H  0.40834219  0.69134844  0.10710735     0.11800
H698        H  0.30329324  0.75743114  0.08841801     0.12000
H699        H  0.26754434  0.73726953  0.15656575     0.08300
C700        C  0.34773684  0.72128250  0.24069743    -0.10800
C701        C  0.33776499  0.72678253  0.28101511    -0.10100
C702        C  0.28468460  0.71100027  0.29599960    -0.01000
C703        C  0.24148849  0.68726865  0.27025925    -0.11200
C704        C  0.25167286  0.68426924  0.22971396    -0.09600
H705        H  0.38928463  0.73546142  0.22969434     0.08300
H706        H  0.37164197  0.74631785  0.30012338     0.12000
H707        H  0.20013541  0.67510377  0.28111424     0.11800
H708        H  0.21790897  0.66918097  0.21034527     0.08300
C709        C  0.40695663  0.59885616  0.16503685    -0.10800
C710        C  0.45618446  0.61999653  0.18476617     0.06400
C711        C  0.50433818  0.63119315  0.16236224    -0.09500
C712        C  0.50288346  0.62114165  0.12173938    -0.11200
C713        C  0.45396615  0.60194336  0.10217423    -0.01000
C714        C  0.40608965  0.59108739  0.12423946    -0.10100
C715        C  0.45740675  0.63185090  0.22803327     0.06400
H716        H  0.54335505  0.64803958  0.17592108     0.08300
H717        H  0.53964712  0.62719264  0.10560517     0.11800
H718        H  0.36733461  0.57349992  0.11015665     0.12000
H719        H  0.36857977  0.58704902  0.18112252     0.08300
C720        C  0.41944745  0.64540041  0.24620329    -0.10800
C721        C  0.42374801  0.66210844  0.28537143    -0.10100
C722        C  0.46677301  0.66673349  0.30711007    -0.01000
C723        C  0.50282741  0.65016808  0.29042357    -0.11200
C724        C  0.49795380  0.63244088  0.25135247    -0.09600
H725        H  0.38784584  0.64583288  0.22992404     0.08300
H726        H  0.39586102  0.67497498  0.29788887     0.12000
H727        H  0.53664765  0.65385732  0.30693396     0.11800
H728        H  0.52703644  0.62079194  0.23924371     0.08300
C729        C  0.44299296  0.62588667  0.82842314    -0.10800
C730        C  0.42362068  0.66048759  0.82005034     0.06400
C731        C  0.40575925  0.68154532  0.85173259    -0.09500
C732        C  0.40185592  0.66393133  0.89039844    -0.11200
C733        C  0.41774890  0.62644868  0.89804590    -0.01000
C734        C  0.44244855  0.61099619  0.86712219    -0.10100
C735        C  0.42254199  0.67436993  0.77838013     0.06400
H736        H  0.39052180  0.70822267  0.84616496     0.08300
H737        H  0.38242663  0.67633286  0.91346882     0.11800
H738        H  0.45492639  0.58196518  0.87221883     0.12000
H739        H  0.45797231  0.60967983  0.80491985     0.08300
C740        C  0.44383399  0.72637822  0.76788822    -0.10800
C741        C  0.44915477  0.74066556  0.72832841    -0.10100
C742        C  0.43573306  0.70318551  0.69812690    -0.01000
C743        C  0.41106707  0.65064934  0.70852568    -0.11200
C744        C  0.40514797  0.63645365  0.74828308    -0.09600
H745        H  0.46158570  0.75611783  0.79009986     0.08300
H746        H  0.96993807  0.78152472  0.72110338     0.12000
H747        H  0.40180761  0.62112673  0.68588407     0.11800
H748        H  0.39002759  0.59605930  0.75537097     0.08300
C749        C  0.20091135  0.77639692  0.76369551    -0.10800
C750        C  0.24198818  0.82502635  0.77538383     0.06400
C751        C  0.27847959  0.85898025  0.74667116    -0.09500
C752        C  0.27465297  0.84402791  0.70704071    -0.11200
C753        C  0.23510610  0.79447204  0.69571795    -0.01000
C754        C  0.19718357  0.76131633  0.72406369    -0.10100
C755        C  0.24963032  0.83864599  0.81766472     0.06400
H756        H  0.31076513  0.89665188  0.75507502     0.08300
H757        H  0.30510236  0.86949801  0.68569753     0.11800
H758        H  0.16757971  0.72224543  0.71596150     0.12000
H759        H  0.17396417  0.74896069  0.78554984     0.08300
C760        C  0.20615232  0.83351681  0.84307281    -0.10800
C761        C  0.21454602  0.84757904  0.88300800    -0.10100
C762        C  0.26659114  0.86626213  0.89789206    -0.01000
C763        C  0.30921903  0.86941913  0.87257916    -0.11200
C764        C  0.30125937  0.85726267  0.83275547    -0.09600
H765        H  0.16674204  0.82149119  0.83137522     0.08300
H766        H  0.18187299  0.84781142  0.90134506     0.12000
H767        H  0.35009192  0.88628716  0.88300125     0.11800
H768        H  0.33569261  0.86259450  0.81365456     0.08300
C769        C  0.27060059  0.85226125  0.15476819    -0.10800
C770        C  0.30578381  0.84426114  0.17818145     0.06400
C771        C  0.35275469  0.84568509  0.16012905    -0.09500
C772        C  0.36478245  0.85647413  0.11992857    -0.11200
C773        C  0.33195758  0.86861064  0.09725363    -0.01000
C774        C  0.28395725  0.86502250  0.11492639    -0.10100
C775        C  0.29285649  0.83312504  0.22095844     0.06400
H776        H  0.37960509  0.83742757  0.17689957     0.08300
H777        H  0.40016758  0.85608756  0.10654941     0.11800
H778        H  0.25868018  0.87532810  0.09830293     0.12000
H779        H  0.23418892  0.85119474  0.16786968     0.08300
C780        C  0.33417860  0.85382527  0.24836244    -0.10800
C781        C  0.32288333  0.83801380  0.28770679    -0.10100
C782        C  0.27001699  0.80174726  0.30045235    -0.01000
C783        C  0.22784488  0.78459448  0.27401583    -0.11200
C784        C  0.23939383  0.79942179  0.23442931    -0.09600
H785        H  0.37567161  0.88048858  0.23900422     0.08300
H786        H  0.35614003  0.85108427  0.30753689     0.12000
H787        H  0.18727964  0.75525041  0.28292589     0.11800
H788        H  0.20747337  0.78138717  0.21361674     0.08300
C789        C  0.02155954  0.75045046  0.15459006    -0.10800
C790        C  0.06402895  0.78622604  0.17735638     0.06400
C791        C  0.11573383  0.81480375  0.15957749    -0.09500
C792        C  0.12632894  0.80513939  0.12067955    -0.11200
C793        C  0.08631444  0.76398659  0.10001538    -0.01000
C794        C  0.03285755  0.73950870  0.11591662    -0.10100
C795        C  0.05734607  0.78784226  0.22052153     0.06400
H796        H  0.14890933  0.84106987  0.17712179     0.08300
H797        H  0.16770659  0.82375877  0.10893048     0.11800
H798        H  0.00127507  0.70833395  0.10016951     0.12000
H799        H  0.98101705  0.72792222  0.16764555     0.08300
C800        C  0.01270616  0.79054131  0.23867952    -0.10800
C801        C  0.00390225  0.78505558  0.27951076    -0.10100
C802        C  0.03940215  0.77640592  0.30220234    -0.01000
C803        C  0.08613677  0.77788911  0.28449309    -0.11200
C804        C  0.09472475  0.78304693  0.24386876    -0.09600
H805        H  0.98397433  0.79503279  0.22115830     0.08300
H806        H  0.96739037  0.78360364  0.29306694     0.12000
H807        H  0.11311724  0.77034836  0.30167618     0.11800
H808        H  0.12877807  0.78006246  0.23035230     0.08300
C809        C  0.06123536  0.75399271  0.83953220    -0.10800
C810        C  0.06574299  0.71918204  0.81208490     0.06400
C811        C  0.07059949  0.67736031  0.82646485    -0.09500
C812        C  0.07458044  0.67302808  0.86656652    -0.11200
C813        C  0.08213047  0.71418669  0.89248279    -0.01000
C814        C  0.07263259  0.75362418  0.87907610    -0.10100
C815        C  0.06561360  0.72666601  0.76897355     0.06400
H816        H  0.07312498  0.64863687  0.80704105     0.08300
H817        H  0.07915678  0.64062270  0.87656415     0.11800
H818        H  0.07755316  0.78574522  0.89801672     0.12000
H819        H  0.05155879  0.78290065  0.82994654     0.08300
C820        C  0.08417219  0.77662735  0.75341637    -0.10800
C821        C  0.07647460  0.78276847  0.71402735    -0.10100
C822        C  0.05079165  0.73906889  0.68980426    -0.01000
C823        C  0.03987804  0.69040329  0.70345960    -0.11200
C824        C  0.04622355  0.68399072  0.74287455    -0.09600
H825        H  0.10246813  0.81069412  0.77200460     0.08300
H826        H  0.08559445  0.82061623  0.70355124     0.12000
H827        H  0.02017242  0.65634831  0.68480173     0.11800
H828        H  0.03182007  0.64490009  0.75305004     0.08300
C829        C  0.16680335  0.55303380  0.83747842    -0.10800
C830        C  0.21994062  0.56993194  0.82160077     0.06400
C831        C  0.26311994  0.59057973  0.84766811    -0.09500
C832        C  0.25379268  0.59661958  0.88801446    -0.11200
C833        C  0.20123383  0.58336004  0.90296234    -0.01000
C834        C  0.15783522  0.56030680  0.87744718    -0.10100
C835        C  0.22991377  0.56546389  0.77826782     0.06400
H836        H  0.30446137  0.60462216  0.83651681     0.08300
H837        H  0.28799704  0.61648097  0.90675789     0.11800
H838        H  0.11781543  0.55350137  0.88770784     0.12000
H839        H  0.13209331  0.53558077  0.81891533     0.08300
C840        C  0.19572272  0.56872752  0.75061163    -0.10800
C841        C  0.20113391  0.55835389  0.71056762    -0.10100
C842        C  0.24136292  0.54536417  0.69720318    -0.01000
C843        C  0.27849471  0.54660528  0.72396062    -0.11200
C844        C  0.27231459  0.55565294  0.76413437    -0.09600
H845        H  0.16360770  0.57775607  0.75996069     0.08300
H846        H  0.17165065  0.55705237  0.69046565     0.12000
H847        H  0.30908962  0.53558631  0.71430877     0.11800
H848        H  0.29867578  0.55156751  0.78433862     0.08300
C849        C  0.23282607  0.57343460  0.15867610    -0.10800
C850        C  0.19538084  0.56558197  0.19067945     0.06400
C851        C  0.14504720  0.56257492  0.18237046    -0.09500
C852        C  0.13363725  0.56914834  0.14415097    -0.11200
C853        C  0.17389924  0.58372942  0.11373537    -0.01000
C854        C  0.22284265  0.58386742  0.12089475    -0.10100
C855        C  0.20817537  0.55982231  0.23212661     0.06400
H856        H  0.11468756  0.55715901  0.20528699     0.08300
H857        H  0.09547433  0.56877554  0.13922683     0.11800
H858        H  0.25455234  0.59489343  0.09790115     0.12000
H859        H  0.27072169  0.57309954  0.16263653     0.08300
C860        C  0.26241173  0.57844206  0.24304825    -0.10800
C861        C  0.27413220  0.56913674  0.28057157    -0.10100
C862        C  0.23194025  0.54119016  0.30806495    -0.01000
C863        C  0.17829012  0.52634692  0.29886237    -0.11200
C864        C  0.16639494  0.53502009  0.26131139    -0.09600
H865        H  0.29602135  0.59925383  0.22246026     0.08300
H866        H  0.31567101  0.58026490  0.28721854     0.12000
H867        H  0.14511827  0.50404277  0.31971663     0.11800
H868        H  0.12395600  0.51909504  0.25502420     0.08300
O869        O  0.90102294  0.22905671  0.54410789    -0.81700
C870        C  0.76974953  0.05251039  0.44821707     0.97600
O871        O  0.81001308  0.05821858  0.46746343    -0.70900
O872        O  0.90438154  0.14463585  0.45495153    -0.74400
Al873      Al  0.86043342  0.11473033  0.50100792     1.49000
C874        C  0.93491407  0.19210682  0.44789174     0.92900
O875        O  0.83398487  0.22564231  0.44873415    -0.80700
O876        O  0.74966104  0.15975955  0.54572028    -0.74200
Al877      Al  0.86499807  0.22296143  0.49675620     1.90100
O878        O  0.74848955  0.17257305  0.46486205    -0.73300
O879        O  0.73988886  0.06495899  0.53375133    -0.73100
O880        O  0.74866952  0.08189115  0.45475527    -0.78800
O881        O  0.82137208  0.07843636  0.54713724    -0.77000
O882        O  0.82627554  0.15323712  0.49925047    -1.13100
O883        O  0.91796780  0.16342073  0.53497090    -0.72300
C884        C  0.92720053  0.20570557  0.55238983     0.98400
C885        C  0.78392986  0.20813626  0.44295947     0.94800
Al886      Al  0.75323806  0.12262729  0.49980172     1.55600
O887        O  0.92660466  0.22611201  0.46594080    -0.77000
C888        C  0.77040652  0.05356402  0.55282045     0.98900
C889        C  0.77323991  0.20845918  0.55012095     0.93800
O890        O  0.81321763  0.23716004  0.52765812    -0.82300
N891        N  0.63929530  0.17431202  0.06159567    -0.36500
N892        N  0.68093372  0.12133634  0.00769272    -0.57100
N893        N  0.65760494  0.17248480  0.94847640    -0.36500
N894        N  0.61715611  0.22642630  0.99972867    -0.57100
C895        C  0.66094751  0.15414661  0.08617405     0.27000
C896        C  0.63273188  0.21165499  0.08205022     0.27000
C897        C  0.68963797  0.15633655  0.92841569     0.27000
C898        C  0.65443689  0.20763813  0.92565742     0.27000
C899        C  0.67610376  0.09416622  0.04016982     0.35700
C900        C  0.68787565  0.09505432  0.97657219     0.35700
C901        C  0.59236513  0.23850012  0.02991084     0.35700
C902        C  0.59454075  0.22968712  0.96657427     0.35700
C903        C  0.66832411  0.17911197  0.12232372    -0.21800
C904        C  0.65073746  0.21488954  0.11994324    -0.21800
C905        C  0.70736766  0.18190293  0.89298664    -0.21800
C906        C  0.68667514  0.21558066  0.89162030    -0.21800
C907        C  0.68166864  0.05067520  0.02984089    -0.22900
C908        C  0.68936844  0.05143295  0.98922655    -0.22900
C909        C  0.55554089  0.25240460  0.01592988    -0.22900
C910        C  0.55574572  0.24541890  0.97553857    -0.22900
C911        C  0.66920627  0.11034739  0.07865359    -0.18200
C912        C  0.60407352  0.23748225  0.06946545    -0.18200
C913        C  0.61116612  0.21929653  0.92919040    -0.18200
C914        C  0.69410864  0.11215196  0.93748065    -0.18200
H915        H  0.68225513  0.17067933  0.14877250     0.14700
H916        H  0.64881952  0.23785120  0.14476708     0.14700
H917        H  0.72860732  0.17309780  0.86910420     0.14700
H918        H  0.68874997  0.23775849  0.86617574     0.14700
H919        H  0.68055301  0.02172102  0.04940655     0.13000
H920        H  0.69593610  0.02375314  0.97119026     0.13000
H921        H  0.52949046  0.26381061  0.03315789     0.13000
H922        H  0.53006023  0.25101568  0.95566355     0.13000
H923        H  0.62221276  0.15789745  0.03492610     0.26200
H924        H  0.62946363  0.15203837  0.97102417     0.26200
N925        N  0.83519697  0.49647590  0.94596329    -0.36500
N926        N  0.82661662  0.41126965  0.99487644    -0.57100
N927        N  0.89864105  0.48830157  0.04656171    -0.36500
N928        N  0.91993650  0.07354233  0.99493575    -0.57100
C929        C  0.80474095  0.45496345  0.92305963     0.27000
C930        C  0.85390464  0.03893638  0.92278319     0.27000
C931        C  0.89854254  0.44524743  0.05945997     0.27000
C932        C  0.94322865  0.02932398  0.06015871     0.27000
C933        C  0.78853477  0.38299839  0.96883725     0.35700
C934        C  0.81838958  0.38040415  0.02602055     0.35700
C935        C  0.91431662  0.10536513  0.96996251     0.35700
C936        C  0.93552047  0.09940925  0.02946529     0.35700
C937        C  0.80066746  0.47194967  0.88632177    -0.21800
C938        C  0.83064416  0.02439958  0.88634374    -0.21800
C939        C  0.94491850  0.45942241  0.08060910    -0.21200
C940        C  0.97285054  0.01255789  0.08125417    -0.21800
C941        C  0.75691005  0.33294824  0.98264274    -0.22900
C942        C  0.77499809  0.33160596  0.01954101    -0.22900
C943        C  0.92805208  0.15261522  0.98808181    -0.22900
C944        C  0.93977406  0.14815634  0.02639675    -0.22900
C945        C  0.78343662  0.40170945  0.93237278    -0.18200
C946        C  0.89353109  0.09038429  0.93210908    -0.18200
C947        C  0.94889680  0.07935306  0.06198532    -0.18200
C948        C  0.85223541  0.39587968  0.05878077    -0.18200
H949        H  0.78027828  0.44889367  0.86104809     0.14700
H950        H  0.83620193  0.04861152  0.86138377     0.14700
H951        H  0.95781798  0.43523864  0.09509975     0.14700
H952        H  0.00956139  0.03589802  0.09689390     0.14700
H953        H  0.72361432  0.30134063  0.96803212     0.13000
H954        H  0.75926262  0.29832975  0.03874050     0.13000
H955        H  0.92677875  0.18561644  0.97584822     0.13000
H956        H  0.95055188  0.17760486  0.04888501     0.13000
H957        H  0.84387826  0.49557571  0.97505457     0.26200
H958        H  0.86503001  0.49007488  0.03642283     0.26200
N959        N  0.99817175  0.37737054  0.95300006    -0.36500
N960        N  0.91270361  0.30416288  0.99982000    -0.57100
N961        N  0.99870831  0.33273670  0.05794482    -0.36500
N962        N  0.58607237  0.41380518  0.00824145    -0.57100
C963        C  0.95375065  0.37128091  0.93485995     0.27000
C964        C  0.54096248  0.42074626  0.93891012     0.27000
C965        C  0.95180934  0.30272136  0.07896237     0.27000
C966        C  0.53796097  0.36054015  0.08413722     0.27000
C967        C  0.88876923  0.28934894  0.96464277     0.35700
C968        C  0.88688070  0.26385967  0.02452334     0.35700
C969        C  0.61279603  0.41833279  0.97322662     0.35700
C970        C  0.61341258  0.40383977  0.03507005     0.35700
C971        C  0.96779339  0.41349261  0.91078040    -0.21800
C972        C  0.52322838  0.44405278  0.91262650    -0.21800
C973        C  0.96139534  0.31190404  0.11876229    -0.21800
C974        C  0.51491694  0.34716173  0.12202149    -0.21800
C975        C  0.84615701  0.23903123  0.96735741    -0.22900
C976        C  0.84424962  0.22332260  0.00571940    -0.22900
C977        C  0.65792178  0.41171777  0.97751177    -0.22900
C978        C  0.65849039  0.40249184  0.01698611    -0.22900
C979        C  0.90730766  0.32229796  0.93120462    -0.18200
C980        C  0.59348745  0.42577834  0.93806393    -0.18200
C981        C  0.59474832  0.39388402  0.07470222    -0.18200
C982        C  0.90117761  0.26459508  0.06392451    -0.18200
H983        H  0.94253398  0.41790264  0.88980948     0.14700
H984        H  0.54806368  0.47517269  0.89274058     0.14700
H985        H  0.93311198  0.29450795  0.14352240     0.14700
H986        H  0.53403662  0.35825731  0.14997905     0.14700
H987        H  0.81962989  0.21553306  0.94448354     0.13000
H988        H  0.81602047  0.18583082  0.01794364     0.13000
H989        H  0.68593433  0.41129034  0.95458818     0.13000
H990        H  0.68579498  0.39073366  0.02895490     0.13000
H991        H  0.00200317  0.34732680  0.96553607     0.26200
H992        H  0.00458219  0.33080661  0.02765989     0.26200
C993        C  0.97520685  0.20756553  0.41421575     0.02300
C994        C  0.52427037  0.25600565  0.41220167     0.02300
C995        C  0.54375435  0.27927654  0.37524511    -0.18200
C996        C  0.52035354  0.25198429  0.34093639     0.02300
C997        C  0.98139882  0.19914966  0.34314923     0.02300
C998        C  0.95711905  0.17797830  0.37955588    -0.18200
H999        H  0.92227053  0.13946449  0.38051699     0.04400
H1000       H  0.57914546  0.31734694  0.37289549     0.04400
C1001       C  0.76816937  0.22622792  0.40758328     0.02300
C1002       C  0.74819988  0.26321512  0.40840950     0.02300
C1003       C  0.74775427  0.28651165  0.37284111    -0.18200
C1004       C  0.76289328  0.27185576  0.33670905     0.02300
C1005       C  0.77531116  0.23051113  0.33514286     0.02300
C1006       C  0.78011261  0.20969538  0.37053315    -0.18200
H1007       H  0.79379600  0.18072711  0.36922575     0.04400
H1008       H  0.73569433  0.31663056  0.37327650     0.04400
C1009       C  0.96280412  0.22390102  0.58677996     0.02300
C1010       C  0.52135796  0.25030693  0.58481731     0.02300
C1011       C  0.54912506  0.25756545  0.61963548    -0.18200
C1012       C  0.52127682  0.24064547  0.65568672     0.02300
C1013       C  0.96414129  0.21948267  0.65869258     0.02300
C1014       C  0.93539893  0.21066826  0.62418336    -0.18200
H1015       H  0.89127899  0.19163005  0.62635827     0.04400
H1016       H  0.59321194  0.27479541  0.61853947     0.04400
C1017       C  0.76005923  0.23111230  0.58575664     0.02300
C1018       C  0.73692789  0.26539644  0.58611082     0.02300
C1019       C  0.72784486  0.28464458  0.62263194    -0.18200
C1020       C  0.74306476  0.27252766  0.65781974     0.02300
C1021       C  0.76992902  0.24226162  0.65699184     0.02300
C1022       C  0.77680586  0.22074641  0.62131955    -0.18200
H1023       H  0.79785536  0.19776288  0.62095673     0.04400
H1024       H  0.70917186  0.30972394  0.62372023     0.04400
C1025       C  0.71854105  0.46243724  0.58630491     0.02300
C1026       C  0.74766573  0.01841126  0.58717636     0.02300
C1027       C  0.75548100  0.04449897  0.62379271    -0.18200
C1028       C  0.73539833  0.01737652  0.65902625     0.02300
C1029       C  0.70713440  0.46278133  0.65809617     0.02300
C1030       C  0.69894950  0.43602921  0.62228360    -0.18200
H1031       H  0.67659518  0.39393394  0.62250492     0.04400
H1032       H  0.77676794  0.08659784  0.62488533     0.04400
C1033       C  0.73780605  0.46374301  0.41120462     0.02300
C1034       C  0.75249276  0.01785216  0.41306368     0.02300
C1035       C  0.75256033  0.04284778  0.37837179    -0.18200
C1036       C  0.74160618  0.01709862  0.34227761     0.02300
C1037       C  0.73414262  0.46608556  0.33947008     0.02300
C1038       C  0.73128771  0.43955762  0.37383348    -0.18200
H1039       H  0.72058256  0.39884503  0.37160662     0.04400
H1040       H  0.76056991  0.08289273  0.37940070     0.04400
O1041       O  0.74474428  0.40242744  0.45173691    -0.81700
C1042       C  0.55810962  0.26897929  0.54909344     0.97600
O1043       O  0.56447382  0.30867282  0.53074150    -0.70900
O1044       O  0.65509014  0.39837333  0.54417406    -0.74400
Al1045     Al  0.62479776  0.35965813  0.49747970     1.49000
C1046       C  0.70470421  0.42756221  0.55089855     0.92900
O1047       O  0.74097957  0.33117428  0.54476846    -0.80700
O1048       O  0.67322666  0.25498354  0.44928685    -0.74200
Al1049     Al  0.73847769  0.36440759  0.49805398     1.90100
O1050       O  0.68452286  0.25055868  0.52906368    -0.73300
O1051       O  0.57412025  0.24703320  0.46323746    -0.73100
O1052       O  0.58971467  0.24998858  0.54169134    -0.78800
O1053       O  0.58850862  0.32560536  0.45084393    -0.77000
O1054       O  0.66551560  0.32715228  0.49698558    -1.13100
O1055       O  0.67591525  0.41776699  0.46452242    -0.72300
C1056       C  0.72004189  0.42792718  0.44546113     0.98400
C1057       C  0.72120475  0.28302659  0.55067365     0.94800
Al1058     Al  0.63343364  0.25720430  0.49581019     1.55600
O1059       O  0.74108095  0.42116068  0.53166117    -0.77000
C1060       C  0.56279170  0.27721761  0.44475912     0.98900
C1061       C  0.72432835  0.27777874  0.44364706     0.93800
O1062       O  0.75391278  0.31717553  0.46430222    -0.82300
C1063       C  0.81599248  0.26181746  0.84283371    -0.10800
C1064       C  0.85441194  0.27526886  0.81118384     0.06400
C1065       C  0.90928534  0.30567518  0.81944301    -0.09500
C1066       C  0.92526390  0.31838989  0.85806198    -0.11200
C1067       C  0.88729063  0.30421192  0.89026181    -0.01000
C1068       C  0.83202708  0.27617281  0.88197299    -0.10100
C1069       C  0.83711890  0.26104996  0.76964339     0.06400
H1070       H  0.94056653  0.31987935  0.79617973     0.08300
H1071       H  0.96795423  0.34110871  0.86224265     0.11800
H1072       H  0.80153655  0.26848124  0.90532377     0.12000
H1073       H  0.77362490  0.24445822  0.83631519     0.08300
C1074       C  0.78971502  0.21475966  0.76076926    -0.10800
C1075       C  0.77021133  0.20503593  0.72249155    -0.10100
C1076       C  0.79821829  0.24096658  0.69239521    -0.01000
C1077       C  0.84798688  0.28445692  0.70028688    -0.11200
C1078       C  0.86678868  0.29487264  0.73849429    -0.09600
H1079       H  0.76640853  0.18714424  0.78371145     0.08300
H1080       H  0.73119912  0.17175005  0.71708229     0.12000
H1081       H  0.86963105  0.31310286  0.67760067     0.11800
H1082       H  0.90289917  0.33121626  0.74376967     0.08300
C1083       C  0.70517574  0.42183478  0.76081084    -0.10800
C1084       C  0.65676883  0.41995062  0.77590661     0.06400
C1085       C  0.62001730  0.42133522  0.74983508    -0.09500
C1086       C  0.63364228  0.42878939  0.70966103    -0.11200
C1087       C  0.68383997  0.43439120  0.69508996    -0.01000
C1088       C  0.71820508  0.42809979  0.72043639    -0.10100
C1089       C  0.64479354  0.41783746  0.81875318     0.06400
H1090       H  0.58238829  0.42007853  0.76083402     0.08300
H1091       H  0.60727571  0.93471004  0.69053501     0.11800
H1092       H  0.75782971  0.43411169  0.70961352     0.12000
H1093       H  0.73396965  0.42105981  0.78050639     0.08300
C1094       C  0.59282679  0.38337220  0.83334959    -0.10800
C1095       C  0.58035005  0.38153484  0.87343118    -0.10100
C1096       C  0.61604480  0.41957917  0.89896088    -0.01000
C1097       C  0.66913021  0.45318878  0.88505904    -0.11200
C1098       C  0.68382333  0.45125557  0.84512654    -0.09600
H1099       H  0.56174602  0.35803896  0.81359883     0.08300
H1100       H  0.54157482  0.35187268  0.88471194     0.12000
H1101       H  0.69811406  0.48201275  0.90440479     0.11800
H1102       H  0.72429558  0.47831756  0.83423528     0.08300
C1103       C  0.63499642  0.44799387  0.17598881    -0.10800
C1104       C  0.68083897  0.44149092  0.18109202     0.06400
C1105       C  0.70874276  0.43621563  0.14722439    -0.09500
C1106       C  0.68413656  0.42536649  0.11071377    -0.11200
C1107       C  0.63278896  0.42263891  0.10735622    -0.01000
C1108       C  0.61435757  0.44323300  0.13875912    -0.10100
C1109       C  0.69587096  0.43584275  0.22142196     0.06400
H1110       H  0.74624253  0.43459934  0.14953138     0.08300
H1111       H  0.70349989  0.41455355  0.08707865     0.11800
H1112       H  0.57876729  0.44831380  0.13600953     0.12000
H1113       H  0.61410503  0.45556415  0.20090512     0.08300
C1114       C  0.65480519  0.41157654  0.25102706    -0.10800
C1115       C  0.66790316  0.41295450  0.29026702    -0.10100
C1116       C  0.72229802  0.43962280  0.30067892    -0.01000
C1117       C  0.76354951  0.45730969  0.27076842    -0.11200
C1118       C  0.75044837  0.45555382  0.23129989    -0.09600
H1119       H  0.61228629  0.39424593  0.24429647     0.08300
H1120       H  0.63550421  0.89921817  0.31288304     0.12000
H1121       H  0.80586324  0.47845877  0.27836400     0.11800
H1122       H  0.78314881  0.47390235  0.20929826     0.08300
C1123       C  0.79564883  0.22401904  0.14529601    -0.10800
C1124       C  0.81684172  0.20219998  0.17099262     0.06400
C1125       C  0.85438805  0.18682379  0.15545052    -0.09500
C1126       C  0.87506059  0.19847018  0.11663064    -0.11200
C1127       C  0.86020171  0.22785803  0.09312328    -0.01000
C1128       C  0.81638712  0.23583552  0.10630999    -0.10100
C1129       C  0.80496064  0.20138534  0.21436040     0.06400
H1130       H  0.87104540  0.16963461  0.17416769     0.08300
H1131       H  0.90834209  0.19134841  0.10710741     0.11800
H1132       H  0.80329321  0.25743123  0.08841823     0.12000
H1133       H  0.76754413  0.23726924  0.15656590     0.08300
C1134       C  0.84773672  0.22128238  0.24069742    -0.10800
C1135       C  0.83776489  0.22678254  0.28101509    -0.10100
C1136       C  0.78468447  0.21100012  0.29599960    -0.01000
C1137       C  0.74148832  0.18726830  0.27025929    -0.11200
C1138       C  0.75167267  0.18426890  0.22971398    -0.09600
H1139       H  0.88928453  0.23546136  0.22969432     0.08300
H1140       H  0.87164189  0.24631807  0.30012332     0.12000
H1141       H  0.70013523  0.17510330  0.28111431     0.11800
H1142       H  0.71790877  0.16918056  0.21034528     0.08300
C1143       C  0.90695654  0.09885608  0.16503693    -0.10800
C1144       C  0.95618442  0.11999652  0.18476623     0.06400
C1145       C  0.00433816  0.13119308  0.16236231    -0.09500
C1146       C  0.00288341  0.12114157  0.12173946    -0.11200
C1147       C  0.95396610  0.10194325  0.10217433    -0.01000
C1148       C  0.90608960  0.09108738  0.12423953    -0.10100
C1149       C  0.95740679  0.13185101  0.22803330     0.06400
H1150       H  0.04335505  0.14803943  0.17592116     0.08300
H1151       H  0.03964707  0.12719261  0.10560522     0.11800
H1152       H  0.86733460  0.07350007  0.11015668     0.12000
H1153       H  0.86857965  0.08704888  0.18112261     0.08300
C1154       C  0.91944751  0.14540052  0.24620333    -0.10800
C1155       C  0.92374808  0.16210853  0.28537149    -0.10100
C1156       C  0.96677303  0.16673347  0.30711012    -0.01000
C1157       C  0.00282733  0.15016794  0.29042362    -0.11200
C1158       C  0.99795379  0.13244089  0.25135249    -0.09600
H1159       H  0.88784587  0.14583295  0.22992409     0.08300
H1160       H  0.89586111  0.17497506  0.29788898     0.12000
H1161       H  0.03664744  0.15385699  0.30693408     0.11800
H1162       H  0.02703637  0.12079188  0.23924372     0.08300
C1163       C  0.94299289  0.12588678  0.82842327    -0.10800
C1164       C  0.92362051  0.16048763  0.82005046     0.06400
C1165       C  0.90575900  0.18154532  0.85173272    -0.09500
C1166       C  0.90185572  0.16393128  0.89039857    -0.11200
C1167       C  0.91774871  0.12644862  0.89804600    -0.01000
C1168       C  0.94244844  0.11099620  0.86712230    -0.10100
C1169       C  0.92254178  0.17436984  0.77838020     0.06400
H1170       H  0.89052147  0.20822262  0.84616512     0.08300
H1171       H  0.88242646  0.17633275  0.91346901     0.11800
H1172       H  0.95492634  0.08196523  0.87221891     0.12000
H1173       H  0.95797232  0.10968004  0.80491996     0.08300
C1174       C  0.94383373  0.22637811  0.76788822    -0.10800
C1175       C  0.94915454  0.24066537  0.72832838    -0.10100
C1176       C  0.93573299  0.20318527  0.69812691    -0.01000
C1177       C  0.91106708  0.15064912  0.70852575    -0.11200
C1178       C  0.90514785  0.13645346  0.74828318    -0.09600
H1179       H  0.96158543  0.25611779  0.79009981     0.08300
H1180       H  0.46993797  0.28152478  0.72110346     0.12000
H1181       H  0.90180781  0.12112654  0.68588415     0.11800
H1182       H  0.89002748  0.09605911  0.75537113     0.08300
C1183       C  0.70091105  0.27639676  0.76369555    -0.10800
C1184       C  0.74198788  0.32502623  0.77538384     0.06400
C1185       C  0.77847914  0.35898018  0.74667112    -0.09500
C1186       C  0.77465258  0.34402786  0.70704068    -0.11200
C1187       C  0.73510579  0.29447193  0.69571796    -0.01000
C1188       C  0.69718328  0.26131617  0.72406372    -0.10100
C1189       C  0.74963020  0.33864594  0.81766473     0.06400
H1190       H  0.81076458  0.39665186  0.75507496     0.08300
H1191       H  0.80510199  0.36949801  0.68569751     0.11800
H1192       H  0.66757946  0.22224525  0.71596151     0.12000
H1193       H  0.67396391  0.24896054  0.78554991     0.08300
C1194       C  0.70615225  0.33351677  0.84307288    -0.10800
C1195       C  0.71454605  0.34757892  0.88300808    -0.10100
C1196       C  0.76659126  0.36626211  0.89789206    -0.01000
C1197       C  0.80921915  0.36941926  0.87257908    -0.11200
C1198       C  0.80125936  0.35726274  0.83275539    -0.09600
H1199       H  0.66674194  0.32149119  0.83137533     0.08300
H1200       H  0.68187300  0.34781115  0.90134524     0.12000
H1201       H  0.85009210  0.38628738  0.88300111     0.11800
H1202       H  0.83569256  0.36259462  0.81365440     0.08300
C1203       C  0.77060028  0.35226073  0.15476813    -0.10800
C1204       C  0.80578356  0.34426076  0.17818143     0.06400
C1205       C  0.85275459  0.34568491  0.16012906    -0.09500
C1206       C  0.86478247  0.35647409  0.11992860    -0.11200
C1207       C  0.83195753  0.36861052  0.09725367    -0.01000
C1208       C  0.78395705  0.36502217  0.11492637    -0.10100
C1209       C  0.79285612  0.33312465  0.22095843     0.06400
H1210       H  0.87960500  0.33742743  0.17689959     0.08300
H1211       H  0.90016771  0.35608770  0.10654945     0.11800
H1212       H  0.75867998  0.37532777  0.09830291     0.12000
H1213       H  0.73418850  0.35119399  0.16786961     0.08300
C1214       C  0.83417817  0.35382512  0.24836247    -0.10800
C1215       C  0.82288284  0.33801357  0.28770681    -0.10100
C1216       C  0.77001652  0.30174690  0.30045234    -0.01000
C1217       C  0.72784440  0.28459396  0.27401580    -0.11200
C1218       C  0.73939344  0.29942123  0.23442926    -0.09600
H1219       H  0.87567115  0.38048860  0.23900431     0.08300
H1220       H  0.85613950  0.35108416  0.30753696     0.12000
H1221       H  0.68727915  0.25524984  0.28292587     0.11800
H1222       H  0.70747305  0.28138646  0.21361665     0.08300
C1223       C  0.52155942  0.25045047  0.15459019    -0.10800
C1224       C  0.56402889  0.28622604  0.17735651     0.06400
C1225       C  0.61573379  0.31480366  0.15957761    -0.09500
C1226       C  0.62632882  0.30513932  0.12067963    -0.11200
C1227       C  0.58631426  0.26398651  0.10001547    -0.01000
C1228       C  0.53285737  0.23950852  0.11591676    -0.10100
C1229       C  0.55734602  0.28784237  0.22052167     0.06400
H1230       H  0.64890933  0.34106978  0.17712188     0.08300
H1231       H  0.66770644  0.32375875  0.10893049     0.11800
H1232       H  0.50127488  0.20833371  0.10016967     0.12000
H1233       H  0.48101694  0.22792240  0.16764573     0.08300
C1234       C  0.51270600  0.29054123  0.23867968    -0.10800
C1235       C  0.50390220  0.28505560  0.27951092    -0.10100
C1236       C  0.53940222  0.27640613  0.30220248    -0.01000
C1237       C  0.58613694  0.27788957  0.28449322    -0.11200
C1238       C  0.59472488  0.28304733  0.24386890    -0.09600
H1239       H  0.48397400  0.29503249  0.22115851     0.08300
H1240       H  0.46739031  0.28360361  0.29306711     0.12000
H1241       H  0.61311755  0.27034900  0.30167630     0.11800
H1242       H  0.62877830  0.28006300  0.23035246     0.08300
C1243       C  0.56123513  0.25399253  0.83953233    -0.10800
C1244       C  0.56574272  0.21918188  0.81208499     0.06400
C1245       C  0.57059928  0.17736019  0.82646490    -0.09500
C1246       C  0.57458039  0.17302801  0.86656654    -0.11200
C1247       C  0.58213035  0.21418656  0.89248285    -0.01000
C1248       C  0.57263239  0.25362399  0.87907623    -0.10100
C1249       C  0.56561329  0.22666587  0.76897364     0.06400
H1250       H  0.57312473  0.14863674  0.80704109     0.08300
H1251       H  0.57915687  0.14062271  0.87656411     0.11800
H1252       H  0.57755292  0.28574497  0.89801690     0.12000
H1253       H  0.55155849  0.28290043  0.82994673     0.08300
C1254       C  0.58417174  0.27662724  0.75341652    -0.10800
C1255       C  0.57647436  0.28276855  0.71402749    -0.10100
C1256       C  0.55079163  0.23906902  0.68980433    -0.01000
C1257       C  0.53987816  0.19040340  0.70345959    -0.11200
C1258       C  0.54622344  0.18399066  0.74287457    -0.09600
H1259       H  0.60246748  0.31069392  0.77200484     0.08300
H1260       H  0.58559420  0.32061636  0.70355145     0.12000
H1261       H  0.52017274  0.15634849  0.68480161     0.11800
H1262       H  0.53181993  0.14490000  0.75305000     0.08300
C1263       C  0.66680335  0.05303374  0.83747842    -0.10800
C1264       C  0.71994058  0.06993179  0.82160078     0.06400
C1265       C  0.76311984  0.09057955  0.84766813    -0.09500
C1266       C  0.75379253  0.09661954  0.88801445    -0.11200
C1267       C  0.70123368  0.08336003  0.90296231    -0.01000
C1268       C  0.65783514  0.06030684  0.87744712    -0.10100
C1269       C  0.72991370  0.06546377  0.77826785     0.06400
H1270       H  0.80446126  0.10462188  0.83651686     0.08300
H1271       H  0.78799689  0.11648098  0.90675786     0.11800
H1272       H  0.61781534  0.05350147  0.88770766     0.12000
H1273       H  0.63209333  0.03558072  0.81891535     0.08300
C1274       C  0.69572269  0.06872744  0.75061165    -0.10800
C1275       C  0.70113390  0.05835393  0.71056763    -0.10100
C1276       C  0.74136284  0.04536417  0.69720318    -0.01000
C1277       C  0.77849451  0.04660515  0.72396067    -0.11200
C1278       C  0.77231441  0.05565273  0.76413440    -0.09600
H1279       H  0.66360764  0.07775593  0.75996072     0.08300
H1280       H  0.67165070  0.05705253  0.69046567     0.12000
H1281       H  0.80908937  0.03558613  0.71430885     0.11800
H1282       H  0.79867554  0.05156715  0.78433861     0.08300
C1283       C  0.73282617  0.07343466  0.15867609    -0.10800
C1284       C  0.69538084  0.06558186  0.19067943     0.06400
C1285       C  0.64504714  0.06257471  0.18237042    -0.09500
C1286       C  0.63363725  0.06914827  0.14415096    -0.11200
C1287       C  0.67389921  0.08372939  0.11373536    -0.01000
C1288       C  0.72284269  0.08386749  0.12089473    -0.10100
C1289       C  0.70817536  0.05982229  0.23212662     0.06400
H1290       H  0.61468743  0.05715873  0.20528692     0.08300
H1291       H  0.59547436  0.06877555  0.13922686     0.11800
H1292       H  0.75455240  0.09489363  0.09790114     0.12000
H1293       H  0.77072189  0.07309979  0.16263652     0.08300
C1294       C  0.76241170  0.07844199  0.24304830    -0.10800
C1295       C  0.77413217  0.06913661  0.28057159    -0.10100
C1296       C  0.73194022  0.04119017  0.30806497    -0.01000
C1297       C  0.67829013  0.02634711  0.29886239    -0.11200
C1298       C  0.66639493  0.03502017  0.26131140    -0.09600
H1299       H  0.79602134  0.09925367  0.22246031     0.08300
H1300       H  0.81567094  0.08026463  0.28721856     0.12000
H1301       H  0.64511829  0.00404313  0.31971669     0.11800
H1302       H  0.62395598  0.01909507  0.25502423     0.08300
O1303       O  0.90102304  0.72905649  0.54410827    -0.81700
C1304       C  0.76974875  0.55251049  0.44821728     0.97600
O1305       O  0.81001236  0.55821857  0.46746354    -0.70900
O1306       O  0.90438112  0.64463566  0.45495203    -0.74400
Al1307     Al  0.86043282  0.61473002  0.50100825     1.49000
C1308       C  0.93491374  0.69210660  0.44789222     0.92900
O1309       O  0.83398475  0.72564222  0.44873473    -0.80700
O1310       O  0.74966089  0.65975956  0.54572089    -0.74200
Al1311     Al  0.86499799  0.72296131  0.49675671     1.90100
O1312       O  0.74848935  0.67257334  0.46486270    -0.73300
O1313       O  0.73988819  0.56495883  0.53375163    -0.73100
O1314       O  0.74866891  0.58189137  0.45475559    -0.78800
O1315       O  0.82137132  0.57843593  0.54713746    -0.77000
O1316       O  0.82627522  0.65323702  0.49925092    -1.13100
O1317       O  0.91796725  0.66342009  0.53497135    -0.72300
C1318       C  0.92720035  0.70570507  0.55239022     0.98400
C1319       C  0.78392979  0.70813626  0.44296000     0.94800
Al1320     Al  0.75323769  0.62262739  0.49980220     1.55600
O1321       O  0.92660446  0.72611188  0.46594122    -0.77000
C1322       C  0.77040576  0.55356366  0.55282065     0.98900
C1323       C  0.77323994  0.70845920  0.55012157     0.93800
O1324       O  0.81321773  0.73715998  0.52765876    -0.82300
N1325       N  0.63929450  0.67431230  0.06159543    -0.36500
N1326       N  0.68093291  0.62133635  0.00769251    -0.57100
N1327       N  0.65760444  0.67248485  0.94847615    -0.36500
N1328       N  0.61715549  0.72642642  0.99972833    -0.57100
C1329       C  0.66094702  0.65414717  0.08617377     0.27000
C1330       C  0.63273091  0.71165519  0.08204995     0.27000
C1331       C  0.68963746  0.65633649  0.92841560     0.27000
C1332       C  0.65443667  0.70763832  0.92565717     0.27000
C1333       C  0.67610312  0.59416649  0.04016970     0.35700
C1334       C  0.68787480  0.59505417  0.97657209     0.35700
C1335       C  0.59236423  0.73850008  0.02991042     0.35700
C1336       C  0.59454026  0.72968718  0.96657383     0.35700
C1337       C  0.66832367  0.67911266  0.12232340    -0.21800
C1338       C  0.65073662  0.71488994  0.11994296    -0.21800
C1339       C  0.70736754  0.68190300  0.89298663    -0.21800
C1340       C  0.68667517  0.71558087  0.89162016    -0.21800
C1341       C  0.68166802  0.55067542  0.02984092    -0.22900
C1342       C  0.68936769  0.55143289  0.98922657    -0.22900
C1343       C  0.55554002  0.75240443  0.01592926    -0.22900
C1344       C  0.55574507  0.74541879  0.97553795    -0.22900
C1345       C  0.66920586  0.61034798  0.07865343    -0.18200
C1346       C  0.60407241  0.73748225  0.06946509    -0.18200
C1347       C  0.61116590  0.71929674  0.92918998    -0.18200
C1348       C  0.69410777  0.61215170  0.93748054    -0.18200
H1349       H  0.68225483  0.67068015  0.14877216     0.14700
H1350       H  0.64881854  0.73785153  0.14476680     0.14700
H1351       H  0.72860730  0.67309778  0.86910432     0.14700
H1352       H  0.68875026  0.73775878  0.86617557     0.14700
H1353       H  0.68055258  0.52172143  0.04940668     0.13000
H1354       H  0.69593546  0.52375305  0.97119039     0.13000
H1355       H  0.52948944  0.76381033  0.03315717     0.13000
H1356       H  0.53005963  0.75101551  0.95566282     0.13000
H1357       H  0.62221180  0.65789752  0.03492591     0.26200
H1358       H  0.62946279  0.65203828  0.97102381     0.26200
N1359       N  0.83519555  0.99647599  0.94596325    -0.36500
N1360       N  0.82661540  0.91126966  0.99487653    -0.57100
N1361       N  0.89864038  0.98830154  0.04656137    -0.36500
N1362       N  0.91993727  0.57354245  0.99493616    -0.57100
C1363       C  0.80473957  0.95496344  0.92305966     0.27000
C1364       C  0.85390576  0.53893642  0.92278343     0.27000
C1365       C  0.89854143  0.94524736  0.05946010     0.27000
C1366       C  0.94322944  0.52932400  0.06015887     0.27000
C1367       C  0.78853299  0.88299861  0.96883766     0.35700
C1368       C  0.81838802  0.88040437  0.02602086     0.35700
C1369       C  0.91431738  0.60536525  0.96996293     0.35700
C1370       C  0.93552133  0.59940938  0.02946569     0.35700
C1371       C  0.80066635  0.97194950  0.88632168    -0.21800
C1372       C  0.83064516  0.52439976  0.88634398    -0.21800
C1373       C  0.94491687  0.95942227  0.08060978    -0.21200
C1374       C  0.97285197  0.51255806  0.08125375    -0.21800
C1375       C  0.75690752  0.83294879  0.98264357    -0.22900
C1376       C  0.77499576  0.83160652  0.01954174    -0.22900
C1377       C  0.92805295  0.65261539  0.98808222    -0.22900
C1378       C  0.93977505  0.64815655  0.02639716    -0.22900
C1379       C  0.78343505  0.90170950  0.93237307    -0.18200
C1380       C  0.89353194  0.59038440  0.93210946    -0.18200
C1381       C  0.94889755  0.57935303  0.06198569    -0.18200
C1382       C  0.85223414  0.89587971  0.05878091    -0.18200
H1383       H  0.78027735  0.94889341  0.86104800     0.14700
H1384       H  0.83620271  0.54861181  0.86138413     0.14700
H1385       H  0.95781576  0.93523854  0.09510116     0.14700
H1386       H  0.00956324  0.53589831  0.09689305     0.14700
H1387       H  0.72361119  0.80134142  0.96803328     0.13000
H1388       H  0.75925985  0.79833049  0.03874145     0.13000
H1389       H  0.92677956  0.68561659  0.97584862     0.13000
H1390       H  0.95055285  0.67760505  0.04888543     0.13000
H1391       H  0.84387655  0.99557592  0.97505455     0.26200
H1392       H  0.86502959  0.99007493  0.03642229     0.26200
N1393       N  0.99817222  0.87737121  0.95300071    -0.36500
N1394       N  0.91270417  0.80416321  0.99982073    -0.57100
N1395       N  0.99870890  0.83273671  0.05794532    -0.36500
N1396       N  0.58607173  0.91380471  0.00824099    -0.57100
C1397       C  0.95375102  0.87128149  0.93486065     0.27000
C1398       C  0.54096208  0.92074588  0.93890967     0.27000
C1399       C  0.95181003  0.80272135  0.07896295     0.27000
C1400       C  0.53796030  0.86054012  0.08413678     0.27000
C1401       C  0.88876971  0.78934941  0.96464352     0.35700
C1402       C  0.88688120  0.76385992  0.02452402     0.35700
C1403       C  0.61279556  0.91833249  0.97322620     0.35700
C1404       C  0.61341203  0.90383956  0.03506967     0.35700
C1405       C  0.96779360  0.91349304  0.91078102    -0.21800
C1406       C  0.52322808  0.94405261  0.91262619    -0.21800
C1407       C  0.96139619  0.81190404  0.11876284    -0.21800
C1408       C  0.51491609  0.84716180  0.12202103    -0.21800
C1409       C  0.84615745  0.73903169  0.96735811    -0.22900
C1410       C  0.84425002  0.72332291  0.00572007    -0.22900
C1411       C  0.65792147  0.91171779  0.97751142    -0.22900
C1412       C  0.65849000  0.90249187  0.01698577    -0.22900
C1413       C  0.90730811  0.82229847  0.93120540    -0.18200
C1414       C  0.59348704  0.92577800  0.93806349    -0.18200
C1415       C  0.59474773  0.89388389  0.07470186    -0.18200
C1416       C  0.90117825  0.76459513  0.06392515    -0.18200
H1417       H  0.94253402  0.91790296  0.88981018     0.14700
H1418       H  0.54806342  0.97517272  0.89274044     0.14700
H1419       H  0.93311296  0.79450809  0.14352303     0.14700
H1420       H  0.53403562  0.85825746  0.14997866     0.14700
H1421       H  0.81963039  0.71553364  0.94448417     0.13000
H1422       H  0.81602079  0.68583110  0.01794426     0.13000
H1423       H  0.68593422  0.91129066  0.95458788     0.13000
H1424       H  0.68579460  0.89073374  0.02895459     0.13000
H1425       H  0.00200365  0.84732770  0.96553676     0.26200
H1426       H  0.00458269  0.83080671  0.02766037     0.26200
C1427       C  0.97520630  0.70756509  0.41421614     0.02300
C1428       C  0.52427098  0.75600597  0.41220128     0.02300
C1429       C  0.54375486  0.77927717  0.37524480    -0.18200
C1430       C  0.52035398  0.75198528  0.34093600     0.02300
C1431       C  0.98139799  0.69914861  0.34314966     0.02300
C1432       C  0.95711821  0.67797761  0.37955640    -0.18200
H1433       H  0.92226956  0.63946387  0.38051769     0.04400
H1434       H  0.57914588  0.81734762  0.37289530     0.04400
C1435       C  0.76816948  0.72622777  0.40758367     0.02300
C1436       C  0.74819995  0.76321487  0.40840973     0.02300
C1437       C  0.74775414  0.78651114  0.37284127    -0.18200
C1438       C  0.76289323  0.77185517  0.33670927     0.02300
C1439       C  0.77531112  0.73051055  0.33514327     0.02300
C1440       C  0.78011265  0.70969502  0.37053362    -0.18200
H1441       H  0.79379608  0.68072678  0.36922633     0.04400
H1442       H  0.73569405  0.81662994  0.37327658     0.04400
C1443       C  0.96280411  0.72390044  0.58678028     0.02300
C1444       C  0.52135811  0.75030777  0.58481701     0.02300
C1445       C  0.54912506  0.75756640  0.61963526    -0.18200
C1446       C  0.52127660  0.74064604  0.65568638     0.02300
C1447       C  0.96414162  0.71948245  0.65869296     0.02300
C1448       C  0.93539909  0.71066810  0.62418379    -0.18200
H1449       H  0.89127916  0.69163024  0.62635880     0.04400
H1450       H  0.59321196  0.77479653  0.61853938     0.04400
C1451       C  0.76005939  0.73111246  0.58575723     0.02300
C1452       C  0.73692775  0.76539638  0.58611136     0.02300
C1453       C  0.72784460  0.78464445  0.62263247    -0.18200
C1454       C  0.74306471  0.77252774  0.65782029     0.02300
C1455       C  0.76992955  0.74226222  0.65699241     0.02300
C1456       C  0.77680651  0.72074703  0.62132012    -0.18200
H1457       H  0.79785635  0.69776381  0.62095727     0.04400
H1458       H  0.70917135  0.80972360  0.62372073     0.04400
C1459       C  0.71854166  0.96243758  0.58630468     0.02300
C1460       C  0.74766496  0.51841093  0.58717654     0.02300
C1461       C  0.75548018  0.54449876  0.62379283    -0.18200
C1462       C  0.73539789  0.51737639  0.65902642     0.02300
C1463       C  0.70713448  0.96278148  0.65809588     0.02300
C1464       C  0.69894984  0.93602946  0.62228331    -0.18200
H1465       H  0.67659547  0.89393418  0.62250456     0.04400
H1466       H  0.77676685  0.58659766  0.62488537     0.04400
C1467       C  0.73780729  0.96374305  0.41120429     0.02300
C1468       C  0.75249163  0.51785214  0.41306394     0.02300
C1469       C  0.75255921  0.54284765  0.37837196    -0.18200
C1470       C  0.74160526  0.51709844  0.34227775     0.02300
C1471       C  0.73414371  0.96608580  0.33946975     0.02300
C1472       C  0.73128896  0.93955776  0.37383309    -0.18200
H1473       H  0.72058387  0.89884520  0.37160616     0.04400
H1474       H  0.76056885  0.58289260  0.37940080     0.04400
O1475       O  0.74474524  0.90242744  0.45173683    -0.81700
C1476       C  0.55810988  0.76898002  0.54909323     0.97600
O1477       O  0.56447427  0.80867356  0.53074119    -0.70900
O1478       O  0.65509086  0.89837391  0.54417369    -0.74400
Al1479     Al  0.62479843  0.85965856  0.49747938     1.49000
C1480       C  0.70470492  0.92756258  0.55089833     0.92900
O1481       O  0.74097966  0.83117418  0.54476875    -0.80700
O1482       O  0.67322694  0.75498346  0.44928712    -0.74200
Al1483     Al  0.73847818  0.86440755  0.49805407     1.90100
O1484       O  0.68452267  0.75055862  0.52906415    -0.73300
O1485       O  0.57412058  0.74703347  0.46323732    -0.73100
O1486       O  0.58971479  0.74998915  0.54169129    -0.78800
O1487       O  0.58850919  0.82560566  0.45084364    -0.77000
O1488       O  0.66551605  0.82715248  0.49698553    -1.13100
O1489       O  0.67591620  0.91776710  0.46452198    -0.72300
C1490       C  0.72004291  0.92792718  0.44546082     0.98400
C1491       C  0.72120461  0.78302650  0.55067411     0.94800
Al1492     Al  0.63343381  0.75720448  0.49581031     1.55600
O1493       O  0.74108162  0.92116079  0.53166115    -0.77000
C1494       C  0.56279221  0.77721791  0.44475884     0.98900
C1495       C  0.72432861  0.77777862  0.44364726     0.93800
O1496       O  0.75391316  0.81717536  0.46430241    -0.82300
C1497       C  0.81599293  0.76181793  0.84283452    -0.10800
C1498       C  0.85441242  0.77526944  0.81118464     0.06400
C1499       C  0.90928587  0.80567545  0.81944383    -0.09500
C1500       C  0.92526440  0.81838994  0.85806284    -0.11200
C1501       C  0.88729106  0.80421231  0.89026263    -0.01000
C1502       C  0.83202748  0.77617335  0.88197382    -0.10100
C1503       C  0.83711937  0.76105087  0.76964414     0.06400
H1504       H  0.94056705  0.81987956  0.79618054     0.08300
H1505       H  0.96795473  0.84110853  0.86224358     0.11800
H1506       H  0.80153693  0.76848185  0.90532459     0.12000
H1507       H  0.77362538  0.74445864  0.83631594     0.08300
C1508       C  0.78971578  0.71476045  0.76076986    -0.10800
C1509       C  0.77021227  0.70503663  0.72249208    -0.10100
C1510       C  0.79821898  0.74096752  0.69239584    -0.01000
C1511       C  0.84798718  0.78445826  0.70028772    -0.11200
C1512       C  0.86678895  0.79487381  0.73849516    -0.09600
H1513       H  0.76640949  0.68714488  0.78371198     0.08300
H1514       H  0.73120032  0.67175045  0.71708271     0.12000
H1515       H  0.86963111  0.81310451  0.67760166     0.11800
H1516       H  0.90289928  0.83121748  0.74377069     0.08300
C1517       C  0.70517526  0.92183464  0.76081049    -0.10800
C1518       C  0.65676834  0.91995063  0.77590616     0.06400
C1519       C  0.62001693  0.92133541  0.74983462    -0.09500
C1520       C  0.63364204  0.92878962  0.70966057    -0.11200
C1521       C  0.68383974  0.93439125  0.69508958    -0.01000
C1522       C  0.71820472  0.92809968  0.72043605    -0.10100
C1523       C  0.64479295  0.91783748  0.81875271     0.06400
H1524       H  0.58238798  0.92007885  0.76083360     0.08300
H1525       H  0.60727579  0.43470963  0.69053553     0.11800
H1526       H  0.75782935  0.93411155  0.70961319     0.12000
H1527       H  0.73396908  0.92105963  0.78050611     0.08300
C1528       C  0.59282623  0.88337216  0.83334910    -0.10800
C1529       C  0.58034960  0.88153450  0.87343071    -0.10100
C1530       C  0.61604438  0.91957875  0.89896047    -0.01000
C1531       C  0.66912975  0.95318847  0.88505862    -0.11200
C1532       C  0.68382279  0.95125544  0.84512609    -0.09600
H1533       H  0.56174543  0.85803897  0.81359834     0.08300
H1534       H  0.54157435  0.85187227  0.88471141     0.12000
H1535       H  0.69811357  0.98201247  0.90440439     0.11800
H1536       H  0.72429502  0.97831742  0.83423479     0.08300
C1537       C  0.63499606  0.94799381  0.17598859    -0.10800
C1538       C  0.68083884  0.94149117  0.18109170     0.06400
C1539       C  0.70874248  0.93621583  0.14722397    -0.09500
C1540       C  0.68413610  0.92536654  0.11071340    -0.11200
C1541       C  0.63278839  0.92263873  0.10735594    -0.01000
C1542       C  0.61435705  0.94323276  0.13875892    -0.10100
C1543       C  0.69587126  0.93584340  0.22142163     0.06400
H1544       H  0.74624235  0.93459968  0.14953082     0.08300
H1545       H  0.70349947  0.91455366  0.08707828     0.11800
H1546       H  0.57876676  0.94831356  0.13600939     0.12000
H1547       H  0.61410469  0.95556408  0.20090493     0.08300
C1548       C  0.65480577  0.91157713  0.25102690    -0.10800
C1549       C  0.66790409  0.91295486  0.29026675    -0.10100
C1550       C  0.72229900  0.93962323  0.30067848    -0.01000
C1551       C  0.76355026  0.95731057  0.27076782    -0.11200
C1552       C  0.75044881  0.95555478  0.23129936    -0.09600
H1553       H  0.61228678  0.89424647  0.24429655     0.08300
H1554       H  0.63550310  0.39921803  0.31288317     0.12000
H1555       H  0.80586402  0.97845985  0.27836327     0.11800
H1556       H  0.78314909  0.97390349  0.20929763     0.08300
C1557       C  0.79564914  0.72401792  0.14529638    -0.10800
C1558       C  0.81684256  0.70219956  0.17099319     0.06400
C1559       C  0.85438946  0.68682398  0.15545125    -0.09500
C1560       C  0.87506203  0.69847042  0.11663137    -0.11200
C1561       C  0.86020260  0.72785776  0.09312388    -0.01000
C1562       C  0.81638741  0.73583440  0.10631037    -0.10100
C1563       C  0.80496126  0.70138493  0.21436095     0.06400
H1564       H  0.87104723  0.66963537  0.17416857     0.08300
H1565       H  0.90834394  0.69134921  0.10710820     0.11800
H1566       H  0.80329303  0.75742963  0.08841848     0.12000
H1567       H  0.76754414  0.73726781  0.15656611     0.08300
C1568       C  0.84773716  0.72128174  0.24069814    -0.10800
C1569       C  0.83776502  0.72678172  0.28101580    -0.10100
C1570       C  0.78468457  0.71099947  0.29600010    -0.01000
C1571       C  0.74148865  0.68726795  0.27025962    -0.11200
C1572       C  0.75167322  0.68426867  0.22971435    -0.09600
H1573       H  0.88928504  0.73546067  0.22969521     0.08300
H1574       H  0.87164180  0.74631698  0.30012424     0.12000
H1575       H  0.70013554  0.67510309  0.28111450     0.11800
H1576       H  0.71790945  0.66918061  0.21034554     0.08300
C1577       C  0.90695648  0.59885546  0.16503720    -0.10800
C1578       C  0.95618407  0.61999528  0.18476683     0.06400
C1579       C  0.00433801  0.63119181  0.16236313    -0.09500
C1580       C  0.00288373  0.62114075  0.12174020    -0.11200
C1581       C  0.95396662  0.60194290  0.10217479    -0.01000
C1582       C  0.90608995  0.59108717  0.12423975    -0.10100
C1583       C  0.95740598  0.63184935  0.22803398     0.06400
H1584       H  0.04335470  0.64803787  0.17592224     0.08300
H1585       H  0.03964759  0.62719196  0.10560610     0.11800
H1586       H  0.86733513  0.57350031  0.11015664     0.12000
H1587       H  0.86857948  0.58704846  0.18112267     0.08300
C1588       C  0.91944671  0.64539897  0.24620391    -0.10800
C1589       C  0.92374723  0.66210719  0.28537199    -0.10100
C1590       C  0.96677206  0.66673211  0.30711072    -0.01000
C1591       C  0.00282616  0.65016623  0.29042442    -0.11200
C1592       C  0.99795268  0.63243896  0.25135335    -0.09600
H1593       H  0.88784514  0.64583143  0.22992463     0.08300
H1594       H  0.89586037  0.67497394  0.29788932     0.12000
H1595       H  0.03664619  0.65385525  0.30693495     0.11800
H1596       H  0.02703519  0.62078976  0.23924474     0.08300
C1597       C  0.94299351  0.62588736  0.82842375    -0.10800
C1598       C  0.92362050  0.66048770  0.82005097     0.06400
C1599       C  0.90575847  0.68154493  0.85173320    -0.09500
C1600       C  0.90185538  0.66393098  0.89039905    -0.11200
C1601       C  0.91774922  0.62644893  0.89804649    -0.01000
C1602       C  0.94244932  0.61099696  0.86712277    -0.10100
C1603       C  0.92254189  0.67436998  0.77838075     0.06400
H1604       H  0.89052049  0.70822188  0.84616557     0.08300
H1605       H  0.88242568  0.67633204  0.91346946     0.11800
H1606       H  0.95492778  0.58196639  0.87221934     0.12000
H1607       H  0.95797326  0.60968089  0.80492045     0.08300
C1608       C  0.94383435  0.72637829  0.76788873    -0.10800
C1609       C  0.94915532  0.74066549  0.72832885    -0.10100
C1610       C  0.93573351  0.70318531  0.69812741    -0.01000
C1611       C  0.91106731  0.65064917  0.70852633    -0.11200
C1612       C  0.90514780  0.63645359  0.74828377    -0.09600
H1613       H  0.96158614  0.75611797  0.79010033     0.08300
H1614       H  0.46993740  0.78152482  0.72110303     0.12000
H1615       H  0.90180785  0.62112645  0.68588481     0.11800
H1616       H  0.89002708  0.59605922  0.75537179     0.08300
C1617       C  0.70091060  0.77639655  0.76369599    -0.10800
C1618       C  0.74198726  0.82502604  0.77538434     0.06400
C1619       C  0.77847854  0.85898006  0.74667170    -0.09500
C1620       C  0.77465203  0.84402782  0.70704126    -0.11200
C1621       C  0.73510543  0.79447185  0.69571848    -0.01000
C1622       C  0.69718290  0.76131599  0.72406417    -0.10100
C1623       C  0.74962927  0.83864572  0.81766521     0.06400
H1624       H  0.81076390  0.89665177  0.75507556     0.08300
H1625       H  0.80510138  0.86949810  0.68569812     0.11800
H1626       H  0.66757914  0.72224504  0.71596197     0.12000
H1627       H  0.67396352  0.74896030  0.78555033     0.08300
C1628       C  0.70615118  0.83351668  0.84307315    -0.10800
C1629       C  0.71454478  0.84757897  0.88300831    -0.10100
C1630       C  0.76658982  0.86626198  0.89789249    -0.01000
C1631       C  0.80921781  0.86941883  0.87257976    -0.11200
C1632       C  0.80125828  0.85726235  0.83275606    -0.09600
H1633       H  0.66674096  0.82149111  0.83137546     0.08300
H1634       H  0.68187171  0.84781140  0.90134529     0.12000
H1635       H  0.85009068  0.88628680  0.88300196     0.11800
H1636       H  0.83569156  0.86259412  0.81365521     0.08300
C1637       C  0.77059989  0.85226046  0.15476855    -0.10800
C1638       C  0.80578304  0.84425965  0.17818139     0.06400
C1639       C  0.85275371  0.84568344  0.16012863    -0.09500
C1640       C  0.86478130  0.85647299  0.11992817    -0.11200
C1641       C  0.83195653  0.86861024  0.09725373    -0.01000
C1642       C  0.78395641  0.86502221  0.11492682    -0.10100
C1643       C  0.79285595  0.83312336  0.22095838     0.06400
H1644       H  0.87960403  0.83742547  0.17689885     0.08300
H1645       H  0.90016626  0.85608631  0.10654866     0.11800
H1646       H  0.75867945  0.87532831  0.09830369     0.12000
H1647       H  0.73418848  0.85119422  0.16787036     0.08300
C1648       C  0.83417827  0.85382342  0.24836223    -0.10800
C1649       C  0.82288303  0.83801224  0.28770663    -0.10100
C1650       C  0.77001662  0.80174623  0.30045246    -0.01000
C1651       C  0.72784438  0.78459361  0.27401606    -0.11200
C1652       C  0.73939322  0.79942055  0.23442944    -0.09600
H1653       H  0.87567135  0.88048644  0.23900393     0.08300
H1654       H  0.85613982  0.85108257  0.30753663     0.12000
H1655       H  0.68727905  0.75524993  0.28292633     0.11800
H1656       H  0.70747254  0.78138606  0.21361700     0.08300
C1657       C  0.52155876  0.75045141  0.15458981    -0.10800
C1658       C  0.56402843  0.78622688  0.17735605     0.06400
C1659       C  0.61573327  0.81480423  0.15957699    -0.09500
C1660       C  0.62632806  0.80513963  0.12067903    -0.11200
C1661       C  0.58631335  0.76398685  0.10001501    -0.01000
C1662       C  0.53285650  0.73950933  0.11591636    -0.10100
C1663       C  0.55734581  0.78784343  0.22052124     0.06400
H1664       H  0.64890901  0.84107026  0.17712113     0.08300
H1665       H  0.66770565  0.82375875  0.10892984     0.11800
H1666       H  0.50127380  0.70833467  0.10016934     0.12000
H1667       H  0.48101626  0.72792350  0.16764536     0.08300
C1668       C  0.51270575  0.79054214  0.23867940    -0.10800
C1669       C  0.50390216  0.78505662  0.27951069    -0.10100
C1670       C  0.53940252  0.77640750  0.30220216    -0.01000
C1671       C  0.58613739  0.77789137  0.28449277    -0.11200
C1672       C  0.59472503  0.78304888  0.24386841    -0.09600
H1673       H  0.48397354  0.79503312  0.22115827     0.08300
H1674       H  0.46739016  0.78360431  0.29306699     0.12000
H1675       H  0.61311837  0.77035130  0.30167582     0.11800
H1676       H  0.62877863  0.78006490  0.23035192     0.08300
C1677       C  0.56123464  0.75399242  0.83953185    -0.10800
C1678       C  0.56574242  0.71918190  0.81208450     0.06400
C1679       C  0.57059925  0.67736034  0.82646437    -0.09500
C1680       C  0.57458039  0.67302816  0.86656602    -0.11200
C1681       C  0.58213019  0.71418667  0.89248236    -0.01000
C1682       C  0.57263192  0.75362392  0.87907574    -0.10100
C1683       C  0.56561298  0.72666596  0.76897319     0.06400
H1684       H  0.57312492  0.64863706  0.80704050     0.08300
H1685       H  0.57915694  0.64062290  0.87656360     0.11800
H1686       H  0.57755228  0.78574486  0.89801638     0.12000
H1687       H  0.55155790  0.78290028  0.82994626     0.08300
C1688       C  0.58417143  0.77662740  0.75341622    -0.10800
C1689       C  0.57647388  0.78276882  0.71402727    -0.10100
C1690       C  0.55079122  0.73906939  0.68980401    -0.01000
C1691       C  0.53987774  0.69040368  0.70345912    -0.11200
C1692       C  0.54622311  0.68399079  0.74287406    -0.09600
H1693       H  0.60246729  0.81069405  0.77200458     0.08300
H1694       H  0.58559367  0.82061665  0.70355131     0.12000
H1695       H  0.52017234  0.65634888  0.68480103     0.11800
H1696       H  0.53181973  0.64490009  0.75304941     0.08300
C1697       C  0.66680251  0.55303381  0.83747818    -0.10800
C1698       C  0.71993983  0.56993156  0.82160078     0.06400
C1699       C  0.76311893  0.59057868  0.84766833    -0.09500
C1700       C  0.75379140  0.59661842  0.88801465    -0.11200
C1701       C  0.70123260  0.58335956  0.90296225    -0.01000
C1702       C  0.65783419  0.56030685  0.87744688    -0.10100
C1703       C  0.72991322  0.56546382  0.77826789     0.06400
H1704       H  0.80446042  0.60462077  0.83651726     0.08300
H1705       H  0.78799564  0.61647932  0.90675825     0.11800
H1706       H  0.61781450  0.55350194  0.88770729     0.12000
H1707       H  0.63209260  0.53558120  0.81891495     0.08300
C1708       C  0.69572254  0.56872791  0.75061161    -0.10800
C1709       C  0.70113373  0.55835425  0.71056761    -0.10100
C1710       C  0.74136245  0.54536414  0.69720329    -0.01000
C1711       C  0.77849402  0.54660502  0.72396082    -0.11200
C1712       C  0.77231382  0.55565258  0.76413453    -0.09600
H1713       H  0.66360774  0.57775678  0.75996060     0.08300
H1714       H  0.67165067  0.55705302  0.69046559     0.12000
H1715       H  0.80908878  0.53558584  0.71430904     0.11800
H1716       H  0.79867476  0.55156680  0.78433881     0.08300
C1717       C  0.73282599  0.57343531  0.15867585    -0.10800
C1718       C  0.69538057  0.56558203  0.19067921     0.06400
C1719       C  0.64504691  0.56257499  0.18237026    -0.09500
C1720       C  0.63363707  0.56914895  0.14415089    -0.11200
C1721       C  0.67389904  0.58373027  0.11373528    -0.01000
C1722       C  0.72284256  0.58386848  0.12089461    -0.10100
C1723       C  0.70817495  0.55982195  0.23212635     0.06400
H1724       H  0.61468709  0.55715867  0.20528674     0.08300
H1725       H  0.59547409  0.56877608  0.13922687     0.11800
H1726       H  0.75455227  0.59489476  0.09790101     0.12000
H1727       H  0.77072173  0.57310042  0.16263613     0.08300
C1728       C  0.76241123  0.57844123  0.24304801    -0.10800
C1729       C  0.77413151  0.56913594  0.28057139    -0.10100
C1730       C  0.73193950  0.54118990  0.30806491    -0.01000
C1731       C  0.67828948  0.52634695  0.29886224    -0.11200
C1732       C  0.66639448  0.53502006  0.26131119    -0.09600
H1733       H  0.79602096  0.59925274  0.22246004     0.08300
H1734       H  0.81567022  0.58026375  0.28721837     0.12000
H1735       H  0.64511751  0.50404313  0.31971652     0.11800
H1736       H  0.62395557  0.51909528  0.25502406     0.08300
loop_ 
_geom_bond_atom_site_label_1 
_geom_bond_atom_site_label_2 
_geom_bond_distance 
_geom_bond_site_symmetry_2 
_ccdc_geom_bond_type 
O1           C16   1.263       .  A
O1           Al9   1.900       .  S
C2           O12   1.264       .  A
C2            O3   1.270       .  A
C2          C166   1.486       .  S
O3           Al5   1.962       .  S
O4            C6   1.261       .  A
O4           Al5   1.895       .  S
Al5          O13   1.898       .  S
Al5          O15   1.963       .  S
Al5          O14   1.797       .  S
C6           O19   1.262       .  A
C6          C125   1.483       .  S
O7           C17   1.264       .  A
O7           Al9   1.907       .  S
O8           C21   1.263       .  A
O8          Al18   1.900       .  S
Al9          O22   1.941       .  S
Al9          O19   1.935       .  S
Al9          O14   1.803       .  S
O10          C17   1.269       .  A
O10         Al18   1.970       .  S
O11          C20   1.265       .  A
O11         Al18   1.950       .  S
O12         Al18   1.883       .  S
O13          C20   1.261       .  A
O14         Al18   1.797       .  S
O15          C16   1.272       .  A
C16         C141   1.488       .  S
C17         C133   1.495       .  S
C20         C158   1.484       .  S
C21          O22   1.264       .  A
C21         C149   1.477       .  S
N23          C28   1.359       .  A
N23          C27   1.355       .  A
N23          H55   1.038       .  S
N24          C31   1.344       .  A
N24          C32   1.349   1_554  A
N25          C30   1.347       .  A
N25          C29   1.347       .  A
N25          H56   1.041       .  S
N26          C33   1.340   1_556  A
N26          C34   1.347       .  A
C27          C35   1.383       .  A
C27          C43   1.423       .  A
C28          C44   1.426       .  A
C28          C36   1.390       .  A
C29          C37   1.377       .  A
C29          C46   1.404       .  A
C30          C45   1.405       .  A
C30          C38   1.384       .  A
C31          C43   1.412       .  A
C31          C39   1.389       .  A
C32          C46   1.407       .  A
C32          C40   1.382       .  A
C33          C41   1.384       .  A
C33          C44   1.403       .  A
C34          C42   1.385       .  A
C34          C45   1.404       .  A
C35          C36   1.360       .  A
C35          H47   1.077       .  S
C36          H48   1.078       .  S
C37          C38   1.365       .  A
C37          H49   1.078       .  S
C38          H50   1.080       .  S
C39          C40   1.385   1_554  A
C39          H51   1.082       .  S
C40          H52   1.081       .  S
C41          C42   1.381   1_554  A
C41          H53   1.078       .  S
C42          H54   1.080       .  S
C43         C419   1.489       .  S
C44         C359   1.481       .  S
C45         C379   1.487       .  S
C46         C399   1.484       .  S
N57          C61   1.354       .  A
N57         C496   1.357       .  A
N57          H89   1.033       .  S
N58          C65   1.346       .  A
N58          C66   1.352   1_556  A
N59          C63   1.348       .  A
N59         C498   1.345       .  A
N59          H90   1.042       .  S
N60          C67   1.348       .  A
N60          C68   1.350   1_556  A
C61          C69   1.387       .  A
C61          C77   1.421       .  A
C62         N491   1.357   1_545  A
C62          C78   1.420       .  A
C62          C70   1.386       .  A
C63          C71   1.390       .  A
C63          C80   1.410       .  A
C64         N493   1.345   1_545  A
C64          C79   1.398       .  A
C64          C72   1.383       .  A
C65          C77   1.411       .  A
C65          C73   1.385       .  A
C66          C80   1.416       .  A
C66          C74   1.386       .  A
C67          C75   1.382       .  A
C67          C78   1.408       .  A
C68          C76   1.383       .  A
C68          C79   1.413       .  A
C69         C504   1.356       .  A
C69          H81   1.080       .  S
C70         C503   1.356   1_545  A
C70          H82   1.080       .  S
C71         C506   1.370       .  A
C71          H83   1.076       .  S
C72         C505   1.370   1_545  A
C72          H84   1.081       .  S
C73          C74   1.384   1_556  A
C73          H85   1.081       .  S
C74          H86   1.083       .  S
C75          C76   1.383   1_556  A
C75          H87   1.081       .  S
C76          H88   1.074       .  S
C77         C328   1.479       .  S
C78         C299   1.493       .  S
C79         C279   1.482       .  S
C80         C339   1.492       .  S
N91          C95   1.347       .  A
N91         C964   1.345       .  A
N91         H123   1.042       .  S
N92          C99   1.355       .  A
N92         C100   1.345   1_556  A
N93          C97   1.360       .  A
N93         C966   1.365       .  A
N93         H124   1.037       .  S
N94         C101   1.348   1_554  A
N94         C102   1.342       .  A
C95         C103   1.386       .  A
C95         C111   1.412       .  A
C96         N959   1.345   1_455  A
C96         C112   1.404       .  A
C96         C104   1.384       .  A
C97         C105   1.385       .  A
C97         C114   1.430       .  A
C98         N961   1.365   1_455  A
C98         C113   1.438       .  A
C98         C106   1.390       .  A
C99         C111   1.422       .  A
C99         C107   1.388       .  A
C100        C114   1.413       .  A
C100        C108   1.386       .  A
C101        C109   1.381       .  A
C101        C112   1.400       .  A
C102        C110   1.391       .  A
C102        C113   1.406       .  A
C103        C972   1.376       .  A
C103        H115   1.080       .  S
C104        C971   1.376   1_455  A
C104        H116   1.076       .  S
C105        C974   1.363       .  A
C105        H117   1.081       .  S
C106        C973   1.363   1_455  A
C106        H118   1.077       .  S
C107        C108   1.385   1_556  A
C107        H119   1.080       .  S
C108        H120   1.083       .  S
C109        C110   1.378   1_556  A
C109        H121   1.080       .  S
C110        H122   1.076       .  S
C111        C199   1.510       .  S
C112        C228   1.485       .  S
C113        C239   1.510       .  S
C114        C259   1.494       .  S
C125        C130   1.405       .  A
C125        C994   1.430       .  A
C126        C192   1.487       .  S
C126        C127   1.403       .  A
C126        C993   1.430   1_455  A
C127        C128   1.395       .  A
C127        H132   1.085       .  S
C128        C368   1.467       .  S
C128        C997   1.408   1_455  A
C129        C288   1.476       .  S
C129        C130   1.391       .  A
C129        C996   1.408       .  A
C130        H131   1.085       .  S
C133        C134   1.436       .  A
C133        C138   1.416       .  A
C134        C193   1.490       .  S
C134        C135   1.410       .  A
C135        C136   1.399       .  A
C135        H140   1.085       .  S
C136        C348   1.483       .  S
C136        C137   1.410       .  A
C137        C268   1.491       .  S
C137        C138   1.405       .  A
C138        H139   1.084       .  S
C141        C146   1.414       .  A
C141       C1010   1.439       .  A
C142        C174   1.486       .  S
C142        C143   1.402       .  A
C142       C1009   1.439   1_455  A
C143        C144   1.387       .  A
C143        H148   1.086       .  S
C144        C388   1.471       .  S
C144       C1013   1.411   1_455  A
C145        C308   1.491       .  S
C145        C146   1.402       .  A
C145       C1012   1.411       .  A
C146        H147   1.085       .  S
C149        C150   1.431       .  A
C149        C154   1.409       .  A
C150        C189   1.489       .  S
C150        C151   1.408       .  A
C151        C152   1.399       .  A
C151        H156   1.085       .  S
C152        C319   1.475       .  S
C152        C153   1.409       .  A
C153        C208   1.484       .  S
C153        C154   1.396       .  A
C154        H155   1.085       .  S
C157        C178   1.495       .  S
C157        C162   1.407       .  A
C157        C592   1.443       .  A
C158        C159   1.410       .  A
C158        C591   1.443   1_545  A
C159        C160   1.395       .  A
C159        H164   1.086       .  S
C160        C408   1.486       .  S
C160        C595   1.408   1_545  A
C161        C219   1.470       .  S
C161        C162   1.395       .  A
C161        C594   1.408       .  A
C162        H163   1.086       .  S
C165        C188   1.491       .  S
C165        C170   1.411       .  A
C165        C600   1.437       .  A
C166        C167   1.406       .  A
C166        C599   1.437   1_545  A
C167        C168   1.388       .  A
C167        H172   1.085       .  S
C168        C428   1.479       .  S
C168        C603   1.409   1_545  A
C169        C248   1.478       .  S
C169        C170   1.400       .  A
C169        C602   1.409       .  A
C170        H171   1.085       .  S
O173        C188   1.265       .  A
O173       Al181   1.909       .  S
C174        O184   1.262       .  A
C174        O175   1.269       .  A
O175       Al177   1.966       .  S
O176        C178   1.264       .  A
O176       Al177   1.905       .  S
Al177       O185   1.907       .  S
Al177       O187   1.958       .  S
Al177       O186   1.799       .  S
C178        O191   1.267       .  A
O179        C189   1.265       .  A
O179       Al181   1.909       .  S
O180        C193   1.263       .  A
O180       Al190   1.904       .  S
Al181       O194   1.960       .  S
Al181       O191   1.963       .  S
Al181       O186   1.800       .  S
O182        C189   1.265       .  A
O182       Al190   1.949       .  S
O183        C192   1.265       .  A
O183       Al190   1.939       .  S
O184       Al190   1.884       .  S
O185        C192   1.264       .  A
O186       Al190   1.805       .  S
O187        C188   1.270       .  A
C193        O194   1.268       .  A
C195        C196   1.404       .  A
C195        C200   1.411       .  A
C195        H205   1.076       .  S
C196        C201   1.496       .  S
C196        C197   1.398       .  A
C197        C198   1.389       .  A
C197        H202   1.080       .  S
C198        C199   1.409       .  A
C198        H203   1.069       .  S
C199        C200   1.401       .  A
C200        H204   1.080       .  S
C201        C206   1.411       .  A
C201        C210   1.408       .  A
C206        C207   1.403       .  A
C206        H211   1.083       .  S
C207        C208   1.403       .  A
C207        H212   1.082       .  S
C208        C209   1.400       .  A
C209        C210   1.395       .  A
C209        H213   1.083       .  S
C210        H214   1.081       .  S
C215        C216   1.400       .  A
C215        C220   1.396       .  A
C215        H225   1.082       .  S
C216        C221   1.473       .  S
C216        C217   1.406       .  A
C217        C218   1.393       .  A
C217        H222   1.083       .  S
C218        C219   1.399       .  A
C218        H657   1.083       .  S
C219        C220   1.401       .  A
C220        H224   1.082       .  S
C221        C226   1.392       .  A
C221        C230   1.407       .  A
H223        C652   1.083       .  S
C226        C227   1.384       .  A
C226        H231   1.082       .  S
C227        C228   1.400       .  A
C227        H232   1.077       .  S
C228        C229   1.401       .  A
C229        C230   1.404       .  A
C229        H233   1.082       .  S
C230        H234   1.081       .  S
C235        C236   1.403       .  A
C235        C240   1.392       .  A
C235        H245   1.081       .  S
C236        C241   1.490       .  S
C236        C237   1.403       .  A
C237        C238   1.402       .  A
C237        H242   1.079       .  S
C238        C239   1.410       .  A
C238        H243   1.069       .  S
C239        C240   1.403       .  A
C240        H244   1.083       .  S
C241        C246   1.409       .  A
C241        C250   1.406       .  A
C246        C247   1.394       .  A
C246        H251   1.081       .  S
C247        C248   1.398       .  A
C247        H686   1.084       .  S
C248        C249   1.406       .  A
C249        C250   1.400       .  A
C249        H253   1.083       .  S
C250        H254   1.082       .  S
H252        C681   1.084       .  S
C255        C256   1.404       .  A
C255        C260   1.403       .  A
C255        H265   1.080       .  S
C256        C261   1.492       .  S
C256        C257   1.402       .  A
C257        C258   1.397       .  A
C257        H262   1.072       .  S
C258        C259   1.404       .  A
C258        H263   1.080       .  S
C259        C260   1.403       .  A
C260        H264   1.083       .  S
C261        C266   1.408       .  A
C261        C270   1.404       .  A
C266        C267   1.403       .  A
C266        H271   1.081       .  S
C267        C268   1.400       .  A
C267        H272   1.081       .  S
C268        C269   1.406       .  A
C269        C270   1.401       .  A
C269        H273   1.083       .  S
C270        H274   1.080       .  S
C275        C276   1.408       .  A
C275        C280   1.397       .  A
C275        H285   1.081       .  S
C276        C281   1.498       .  S
C276        C277   1.411       .  A
C277        C278   1.400       .  A
C277        H282   1.082       .  S
C278        C279   1.402       .  A
C278        H283   1.079       .  S
C279        C280   1.401       .  A
C280        H284   1.084       .  S
C281        C286   1.409       .  A
C281        C290   1.409       .  A
C286        C287   1.394       .  A
C286        H291   1.071       .  S
C287        C288   1.393       .  A
C287        H292   1.081       .  S
C288        C289   1.402       .  A
C289        C290   1.399       .  A
C289        H293   1.083       .  S
C290        H294   1.082       .  S
C295        C296   1.400       .  A
C295        C300   1.395       .  A
C295        H305   1.082       .  S
C296        C301   1.490       .  S
C296        C297   1.410       .  A
C297        C298   1.406       .  A
C297        H302   1.079       .  S
C298        C299   1.403       .  A
C298        H303   1.081       .  S
C299        C300   1.408       .  A
C300        H304   1.084       .  S
C301        C306   1.398       .  A
C301        C310   1.408       .  A
C306        C307   1.399       .  A
C306        H311   1.077       .  S
C307        C308   1.406       .  A
C307       H1180   1.083       .  S
C308        C309   1.403       .  A
C309        C310   1.404       .  A
C309        H313   1.083       .  S
C310        H314   1.081       .  S
H312       C1175   1.083       .  S
C315        C316   1.400       .  A
C315        C320   1.397       .  A
C315        H325   1.081       .  S
C316        C321   1.477       .  S
C316        C317   1.405       .  A
C317        C318   1.396       .  A
C317        H322   1.083       .  S
C318        C319   1.400       .  A
C318        H323   1.083       .  S
C319        C320   1.403       .  A
C320        H324   1.083       .  S
C321        C326   1.405       .  A
C321        C330   1.397       .  A
C326        C327   1.404       .  A
C326        H331   1.078       .  S
C327        C328   1.404       .  A
C327        H332   1.082       .  S
C328        C329   1.402       .  A
C329        C330   1.390       .  A
C329        H333   1.081       .  S
C330        H334   1.083       .  S
C335        C336   1.402       .  A
C335        C340   1.399       .  A
C335        H345   1.077       .  S
C336        C341   1.487       .  S
C336        C337   1.404       .  A
C337        C338   1.399       .  A
C337        H342   1.083       .  S
C338        C339   1.401       .  A
C338        H343   1.073       .  S
C339        C340   1.401       .  A
C340        H344   1.079       .  S
C341        C346   1.406       .  A
C341        C350   1.404       .  A
C346        C347   1.399       .  A
C346        H351   1.083       .  S
C347        C348   1.403       .  A
C347        H352   1.083       .  S
C348        C349   1.402       .  A
C349        C350   1.400       .  A
C349        H353   1.082       .  S
C350        H354   1.080       .  S
C355        C356   1.402       .  A
C355        C360   1.399       .  A
C355        H365   1.083   1_455  S
C356        C361   1.471       .  S
C356        C357   1.395       .  A
C357        C358   1.390       .  A
C357        H362   1.075       .  S
C358        C359   1.393       .  A
C358        H363   1.078       .  S
C359        C360   1.401       .  A
C360        H364   1.072       .  S
C361        C366   1.400       .  A
C361        C370   1.405       .  A
C366        C367   1.397       .  A
C366        H371   1.082   1_455  S
C367        C368   1.405       .  A
C367        H372   1.081   1_455  S
C368        C369   1.393       .  A
C369        C370   1.389       .  A
C369        H373   1.082       .  S
C370        H374   1.076       .  S
C375        C376   1.407       .  A
C375        C380   1.398       .  A
C375        H385   1.069       .  S
C376        C381   1.488       .  S
C376        C377   1.401       .  A
C377        C378   1.387       .  A
C377        H382   1.080       .  S
C378        C379   1.409       .  A
C378        H383   1.084       .  S
C379        C380   1.397       .  A
C380        H384   1.081       .  S
C381        C386   1.411       .  A
C381        C390   1.407       .  A
C386        C387   1.396       .  A
C386        H391   1.079       .  S
C387        C388   1.397       .  A
C387        H392   1.081       .  S
C388        C389   1.399       .  A
C389        C390   1.389       .  A
C389        H393   1.084       .  S
C390        H394   1.080       .  S
C395        C396   1.407       .  A
C395        C400   1.396       .  A
C395        H405   1.082       .  S
C396        C401   1.497       .  S
C396        C397   1.410       .  A
C397        C398   1.404       .  A
C397        H402   1.078       .  S
C398        C399   1.401       .  A
C398        H403   1.080       .  S
C399        C400   1.403       .  A
C400        H404   1.080       .  S
C401        C406   1.411       .  A
C401        C410   1.407       .  A
C406        C407   1.401       .  A
C406        H411   1.082       .  S
C407        C408   1.401       .  A
C407        H412   1.083       .  S
C408        C409   1.401       .  A
C409        C410   1.400       .  A
C409        H413   1.083       .  S
C410        H414   1.081       .  S
C415        C416   1.415       .  A
C415        C420   1.400       .  A
C415        H425   1.080       .  S
C416        C421   1.504       .  S
C416        C417   1.411       .  A
C417        C418   1.393       .  A
C417        H422   1.079       .  S
C418        C419   1.403       .  A
C418        H423   1.084       .  S
C419        C420   1.401       .  A
C420        H424   1.083       .  S
C421        C426   1.411       .  A
C421        C430   1.412       .  A
C426        C427   1.398       .  A
C426        H431   1.076       .  S
C427        C428   1.396       .  A
C427        H432   1.081       .  S
C428        C429   1.398       .  A
C429        C430   1.395       .  A
C429        H433   1.084       .  S
C430        H434   1.079       .  S
O435        C450   1.263       .  A
O435       Al443   1.900       .  S
C436        O446   1.264       .  A
C436        O437   1.270       .  A
C436        C600   1.486       .  S
O437       Al439   1.962       .  S
O438        C440   1.261       .  A
O438       Al439   1.895       .  S
Al439       O447   1.898       .  S
Al439       O449   1.963       .  S
Al439       O448   1.797       .  S
C440        O453   1.262       .  A
C440        C559   1.483       .  S
O441        C451   1.264       .  A
O441       Al443   1.907       .  S
O442        C455   1.263       .  A
O442       Al452   1.900       .  S
Al443       O456   1.941       .  S
Al443       O453   1.935       .  S
Al443       O448   1.803       .  S
O444        C451   1.269       .  A
O444       Al452   1.970       .  S
O445        C454   1.265       .  A
O445       Al452   1.950       .  S
O446       Al452   1.883       .  S
O447        C454   1.261       .  A
O448       Al452   1.797       .  S
O449        C450   1.272       .  A
C450        C575   1.488       .  S
C451        C567   1.495       .  S
C454        C592   1.484       .  S
C455        O456   1.264       .  A
C455        C583   1.477       .  S
N457        C462   1.359       .  A
N457        C461   1.355       .  A
N457        H489   1.038       .  S
N458        C465   1.344       .  A
N458        C466   1.349   1_554  A
N459        C464   1.347       .  A
N459        C463   1.347       .  A
N459        H490   1.041       .  S
N460        C467   1.340   1_556  A
N460        C468   1.347       .  A
C461        C469   1.383       .  A
C461        C477   1.423       .  A
C462        C478   1.426       .  A
C462        C470   1.390       .  A
C463        C471   1.377       .  A
C463        C480   1.404       .  A
C464        C479   1.405       .  A
C464        C472   1.384       .  A
C465        C477   1.412       .  A
C465        C473   1.389       .  A
C466        C480   1.407       .  A
C466        C474   1.382       .  A
C467        C475   1.384       .  A
C467        C478   1.403       .  A
C468        C476   1.385       .  A
C468        C479   1.404       .  A
C469        C470   1.360       .  A
C469        H481   1.077       .  S
C470        H482   1.078       .  S
C471        C472   1.365       .  A
C471        H483   1.078       .  S
C472        H484   1.080       .  S
C473        C474   1.385   1_554  A
C473        H485   1.082       .  S
C474        H486   1.081       .  S
C475        C476   1.381   1_554  A
C475        H487   1.078       .  S
C476        H488   1.080       .  S
C477        C853   1.489       .  S
C478        C793   1.481       .  S
C479        C813   1.487       .  S
C480        C833   1.484       .  S
N491        C495   1.354       .  A
N491        H523   1.033       .  S
N492        C499   1.346       .  A
N492        C500   1.352   1_556  A
N493        C497   1.348       .  A
N493        H524   1.042       .  S
N494        C501   1.348       .  A
N494        C502   1.350   1_556  A
C495        C503   1.387       .  A
C495        C511   1.421       .  A
C496        C512   1.420       .  A
C496        C504   1.386       .  A
C497        C505   1.390       .  A
C497        C514   1.410       .  A
C498        C513   1.398       .  A
C498        C506   1.383       .  A
C499        C511   1.411       .  A
C499        C507   1.385       .  A
C500        C514   1.416       .  A
C500        C508   1.386       .  A
C501        C509   1.382       .  A
C501        C512   1.408       .  A
C502        C510   1.383       .  A
C502        C513   1.413       .  A
C503        H515   1.080       .  S
C504        H516   1.080       .  S
C505        H517   1.076       .  S
C506        H518   1.081       .  S
C507        C508   1.384   1_556  A
C507        H519   1.081       .  S
C508        H520   1.083       .  S
C509        C510   1.383   1_556  A
C509        H521   1.081       .  S
C510        H522   1.074       .  S
C511        C762   1.479       .  S
C512        C733   1.493       .  S
C513        C713   1.482       .  S
C514        C773   1.492       .  S
N525       C1398   1.345       .  A
N525        C529   1.347       .  A
N525        H557   1.042       .  S
N526        C533   1.355       .  A
N526        C534   1.345   1_556  A
N527       C1400   1.365       .  A
N527        C531   1.360       .  A
N527        H558   1.037       .  S
N528        C535   1.348   1_554  A
N528        C536   1.342       .  A
C529        C537   1.386       .  A
C529        C545   1.412       .  A
C530       N1393   1.345   1_455  A
C530        C546   1.404       .  A
C530        C538   1.384       .  A
C531        C539   1.385       .  A
C531        C548   1.430       .  A
C532       N1395   1.365   1_455  A
C532        C547   1.438       .  A
C532        C540   1.390       .  A
C533        C545   1.422       .  A
C533        C541   1.388       .  A
C534        C548   1.413       .  A
C534        C542   1.386       .  A
C535        C543   1.381       .  A
C535        C546   1.400       .  A
C536        C544   1.391       .  A
C536        C547   1.406       .  A
C537       C1406   1.376       .  A
C537        H549   1.080       .  S
C538       C1405   1.376   1_455  A
C538        H550   1.076       .  S
C539       C1408   1.363       .  A
C539        H551   1.081       .  S
C540       C1407   1.363   1_455  A
C540        H552   1.077       .  S
C541        C542   1.385   1_556  A
C541        H553   1.080       .  S
C542        H554   1.083       .  S
C543        C544   1.378   1_556  A
C543        H555   1.080       .  S
C544        H556   1.076       .  S
C545        C633   1.510       .  S
C546        C662   1.485       .  S
C547        C673   1.510       .  S
C548        C693   1.494       .  S
C559       C1428   1.430       .  A
C559        C564   1.405       .  A
C560        C626   1.487       .  S
C560       C1427   1.430   1_455  A
C560        C561   1.403       .  A
C561        C562   1.395       .  A
C561        H566   1.085       .  S
C562        C802   1.467       .  S
C562       C1431   1.408   1_455  A
C563        C722   1.476       .  S
C563       C1430   1.408       .  A
C563        C564   1.391       .  A
C564        H565   1.085       .  S
C567        C568   1.436       .  A
C567        C572   1.416       .  A
C568        C627   1.490       .  S
C568        C569   1.410       .  A
C569        C570   1.399       .  A
C569        H574   1.085       .  S
C570        C782   1.483       .  S
C570        C571   1.410       .  A
C571        C702   1.491       .  S
C571        C572   1.405       .  A
C572        H573   1.084       .  S
C575       C1444   1.439       .  A
C575        C580   1.414       .  A
C576        C608   1.486       .  S
C576       C1443   1.439   1_455  A
C576        C577   1.402       .  A
C577        C578   1.387       .  A
C577        H582   1.086       .  S
C578        C822   1.471       .  S
C578       C1447   1.411   1_455  A
C579        C742   1.491       .  S
C579       C1446   1.411       .  A
C579        C580   1.402       .  A
C580        H581   1.085       .  S
C583        C584   1.431       .  A
C583        C588   1.409       .  A
C584        C623   1.489       .  S
C584        C585   1.408       .  A
C585        C586   1.399       .  A
C585        H590   1.085       .  S
C586        C753   1.475       .  S
C586        C587   1.409       .  A
C587        C642   1.484       .  S
C587        C588   1.396       .  A
C588        H589   1.085       .  S
C591        C612   1.495       .  S
C591        C596   1.407       .  A
C592        C593   1.410       .  A
C593        C594   1.395       .  A
C593        H598   1.086       .  S
C594        C842   1.486       .  S
C595        C653   1.470       .  S
C595        C596   1.395       .  A
C596        H597   1.086       .  S
C599        C622   1.491       .  S
C599        C604   1.411       .  A
C600        C601   1.406       .  A
C601        C602   1.388       .  A
C601        H606   1.085       .  S
C602        C862   1.479       .  S
C603        C682   1.478       .  S
C603        C604   1.400       .  A
C604        H605   1.085       .  S
O607        C622   1.265       .  A
O607       Al615   1.909       .  S
C608        O618   1.262       .  A
C608        O609   1.269       .  A
O609       Al611   1.966       .  S
O610        C612   1.264       .  A
O610       Al611   1.905       .  S
Al611       O619   1.907       .  S
Al611       O621   1.958       .  S
Al611       O620   1.799       .  S
C612        O625   1.267       .  A
O613        C623   1.265       .  A
O613       Al615   1.909       .  S
O614        C627   1.263       .  A
O614       Al624   1.904       .  S
Al615       O628   1.960       .  S
Al615       O625   1.963       .  S
Al615       O620   1.800       .  S
O616        C623   1.265       .  A
O616       Al624   1.949       .  S
O617        C626   1.265       .  A
O617       Al624   1.939       .  S
O618       Al624   1.884       .  S
O619        C626   1.264       .  A
O620       Al624   1.805       .  S
O621        C622   1.270       .  A
C627        O628   1.268       .  A
C629        C630   1.404       .  A
C629        C634   1.411       .  A
C629        H639   1.076       .  S
C630        C635   1.496       .  S
C630        C631   1.398       .  A
C631        C632   1.389       .  A
C631        H636   1.080       .  S
C632        C633   1.409       .  A
C632        H637   1.069       .  S
C633        C634   1.401       .  A
C634        H638   1.080       .  S
C635        C640   1.411       .  A
C635        C644   1.408       .  A
C640        C641   1.403       .  A
C640        H645   1.083       .  S
C641        C642   1.403       .  A
C641        H646   1.082       .  S
C642        C643   1.400       .  A
C643        C644   1.395       .  A
C643        H647   1.083       .  S
C644        H648   1.081       .  S
C649        C650   1.400       .  A
C649        C654   1.396       .  A
C649        H659   1.082       .  S
C650        C655   1.473       .  S
C650        C651   1.406       .  A
C651        C652   1.393       .  A
C651        H656   1.083       .  S
C652        C653   1.399       .  A
C653        C654   1.401       .  A
C654        H658   1.082       .  S
C655        C660   1.392       .  A
C655        C664   1.407       .  A
C660        C661   1.384       .  A
C660        H665   1.082       .  S
C661        C662   1.400       .  A
C661        H666   1.077       .  S
C662        C663   1.401       .  A
C663        C664   1.404       .  A
C663        H667   1.082       .  S
C664        H668   1.081       .  S
C669        C670   1.403       .  A
C669        C674   1.392       .  A
C669        H679   1.081       .  S
C670        C675   1.490       .  S
C670        C671   1.403       .  A
C671        C672   1.402       .  A
C671        H676   1.079       .  S
C672        C673   1.410       .  A
C672        H677   1.069       .  S
C673        C674   1.403       .  A
C674        H678   1.083       .  S
C675        C680   1.409       .  A
C675        C684   1.406       .  A
C680        C681   1.394       .  A
C680        H685   1.081       .  S
C681        C682   1.398       .  A
C682        C683   1.406       .  A
C683        C684   1.400       .  A
C683        H687   1.083       .  S
C684        H688   1.082       .  S
C689        C690   1.404       .  A
C689        C694   1.403       .  A
C689        H699   1.080       .  S
C690        C695   1.492       .  S
C690        C691   1.402       .  A
C691        C692   1.397       .  A
C691        H696   1.072       .  S
C692        C693   1.404       .  A
C692        H697   1.080       .  S
C693        C694   1.403       .  A
C694        H698   1.083       .  S
C695        C700   1.408       .  A
C695        C704   1.404       .  A
C700        C701   1.403       .  A
C700        H705   1.081       .  S
C701        C702   1.400       .  A
C701        H706   1.081       .  S
C702        C703   1.406       .  A
C703        C704   1.401       .  A
C703        H707   1.083       .  S
C704        H708   1.080       .  S
C709        C710   1.408       .  A
C709        C714   1.397       .  A
C709        H719   1.081       .  S
C710        C715   1.498       .  S
C710        C711   1.411       .  A
C711        C712   1.400       .  A
C711        H716   1.082       .  S
C712        C713   1.402       .  A
C712        H717   1.079       .  S
C713        C714   1.401       .  A
C714        H718   1.084       .  S
C715        C720   1.409       .  A
C715        C724   1.409       .  A
C720        C721   1.394       .  A
C720        H725   1.071       .  S
C721        C722   1.393       .  A
C721        H726   1.081       .  S
C722        C723   1.402       .  A
C723        C724   1.399       .  A
C723        H727   1.083       .  S
C724        H728   1.082       .  S
C729        C730   1.400       .  A
C729        C734   1.395       .  A
C729        H739   1.082       .  S
C730        C735   1.490       .  S
C730        C731   1.410       .  A
C731        C732   1.406       .  A
C731        H736   1.079       .  S
C732        C733   1.403       .  A
C732        H737   1.081       .  S
C733        C734   1.408       .  A
C734        H738   1.084       .  S
C735        C740   1.398       .  A
C735        C744   1.408       .  A
C740        C741   1.399       .  A
C740        H745   1.077       .  S
C741        C742   1.406       .  A
C741       H1614   1.083       .  S
C742        C743   1.403       .  A
C743        C744   1.404       .  A
C743        H747   1.083       .  S
C744        H748   1.081       .  S
H746       C1609   1.083       .  S
C749        C750   1.400       .  A
C749        C754   1.397       .  A
C749        H759   1.081       .  S
C750        C755   1.477       .  S
C750        C751   1.405       .  A
C751        C752   1.396       .  A
C751        H756   1.083       .  S
C752        C753   1.400       .  A
C752        H757   1.083       .  S
C753        C754   1.403       .  A
C754        H758   1.083       .  S
C755        C760   1.405       .  A
C755        C764   1.397       .  A
C760        C761   1.404       .  A
C760        H765   1.078       .  S
C761        C762   1.404       .  A
C761        H766   1.082       .  S
C762        C763   1.402       .  A
C763        C764   1.390       .  A
C763        H767   1.081       .  S
C764        H768   1.083       .  S
C769        C770   1.402       .  A
C769        C774   1.399       .  A
C769        H779   1.077       .  S
C770        C775   1.487       .  S
C770        C771   1.404       .  A
C771        C772   1.399       .  A
C771        H776   1.083       .  S
C772        C773   1.401       .  A
C772        H777   1.073       .  S
C773        C774   1.401       .  A
C774        H778   1.079       .  S
C775        C780   1.406       .  A
C775        C784   1.404       .  A
C780        C781   1.399       .  A
C780        H785   1.083       .  S
C781        C782   1.403       .  A
C781        H786   1.083       .  S
C782        C783   1.402       .  A
C783        C784   1.400       .  A
C783        H787   1.082       .  S
C784        H788   1.080       .  S
C789        C790   1.402       .  A
C789        C794   1.399       .  A
C789        H799   1.083   1_455  S
C790        C795   1.471       .  S
C790        C791   1.395       .  A
C791        C792   1.390       .  A
C791        H796   1.075       .  S
C792        C793   1.393       .  A
C792        H797   1.078       .  S
C793        C794   1.401       .  A
C794        H798   1.072       .  S
C795        C800   1.400       .  A
C795        C804   1.405       .  A
C800        C801   1.397       .  A
C800        H805   1.082   1_455  S
C801        C802   1.405       .  A
C801        H806   1.081   1_455  S
C802        C803   1.393       .  A
C803        C804   1.389       .  A
C803        H807   1.082       .  S
C804        H808   1.076       .  S
C809        C810   1.407       .  A
C809        C814   1.398       .  A
C809        H819   1.069       .  S
C810        C815   1.488       .  S
C810        C811   1.401       .  A
C811        C812   1.387       .  A
C811        H816   1.080       .  S
C812        C813   1.409       .  A
C812        H817   1.084       .  S
C813        C814   1.397       .  A
C814        H818   1.081       .  S
C815        C820   1.411       .  A
C815        C824   1.407       .  A
C820        C821   1.396       .  A
C820        H825   1.079       .  S
C821        C822   1.397       .  A
C821        H826   1.081       .  S
C822        C823   1.399       .  A
C823        C824   1.389       .  A
C823        H827   1.084       .  S
C824        H828   1.080       .  S
C829        C830   1.407       .  A
C829        C834   1.396       .  A
C829        H839   1.082       .  S
C830        C835   1.497       .  S
C830        C831   1.410       .  A
C831        C832   1.404       .  A
C831        H836   1.078       .  S
C832        C833   1.401       .  A
C832        H837   1.080       .  S
C833        C834   1.403       .  A
C834        H838   1.080       .  S
C835        C840   1.411       .  A
C835        C844   1.407       .  A
C840        C841   1.401       .  A
C840        H845   1.082       .  S
C841        C842   1.401       .  A
C841        H846   1.083       .  S
C842        C843   1.401       .  A
C843        C844   1.400       .  A
C843        H847   1.083       .  S
C844        H848   1.081       .  S
C849        C850   1.415       .  A
C849        C854   1.400       .  A
C849        H859   1.080       .  S
C850        C855   1.504       .  S
C850        C851   1.411       .  A
C851        C852   1.393       .  A
C851        H856   1.079       .  S
C852        C853   1.403       .  A
C852        H857   1.084       .  S
C853        C854   1.401       .  A
C854        H858   1.083       .  S
C855        C860   1.411       .  A
C855        C864   1.412       .  A
C860        C861   1.398       .  A
C860        H865   1.076       .  S
C861        C862   1.396       .  A
C861        H866   1.081       .  S
C862        C863   1.398       .  A
C863        C864   1.395       .  A
C863        H867   1.084       .  S
C864        H868   1.079       .  S
O869        C884   1.263       .  A
O869       Al877   1.900       .  S
C870        O880   1.264       .  A
C870        O871   1.270       .  A
C870       C1034   1.486       .  S
O871       Al873   1.962       .  S
O872        C874   1.261       .  A
O872       Al873   1.895       .  S
Al873       O881   1.898       .  S
Al873       O883   1.963       .  S
Al873       O882   1.797       .  S
C874        O887   1.262       .  A
C874        C993   1.483       .  S
O875        C885   1.264       .  A
O875       Al877   1.907       .  S
O876        C889   1.263       .  A
O876       Al886   1.900       .  S
Al877       O890   1.941       .  S
Al877       O887   1.935       .  S
Al877       O882   1.803       .  S
O878        C885   1.269       .  A
O878       Al886   1.970       .  S
O879        C888   1.265       .  A
O879       Al886   1.950       .  S
O880       Al886   1.883       .  S
O881        C888   1.261       .  A
O882       Al886   1.797       .  S
O883        C884   1.272       .  A
C884       C1009   1.488       .  S
C885       C1001   1.495       .  S
C888       C1026   1.484       .  S
C889        O890   1.264       .  A
C889       C1017   1.477       .  S
N891        C896   1.359       .  A
N891        C895   1.355       .  A
N891        H923   1.038       .  S
N892        C899   1.344       .  A
N892        C900   1.349   1_554  A
N893        C898   1.347       .  A
N893        C897   1.347       .  A
N893        H924   1.041       .  S
N894        C901   1.340   1_556  A
N894        C902   1.347       .  A
C895        C903   1.383       .  A
C895        C911   1.423       .  A
C896        C912   1.426       .  A
C896        C904   1.390       .  A
C897        C905   1.377       .  A
C897        C914   1.404       .  A
C898        C913   1.405       .  A
C898        C906   1.384       .  A
C899        C911   1.412       .  A
C899        C907   1.389       .  A
C900        C914   1.407       .  A
C900        C908   1.382       .  A
C901        C909   1.384       .  A
C901        C912   1.403       .  A
C902        C910   1.385       .  A
C902        C913   1.404       .  A
C903        C904   1.360       .  A
C903        H915   1.077       .  S
C904        H916   1.078       .  S
C905        C906   1.365       .  A
C905        H917   1.078       .  S
C906        H918   1.080       .  S
C907        C908   1.385   1_554  A
C907        H919   1.082       .  S
C908        H920   1.081       .  S
C909        C910   1.381   1_554  A
C909        H921   1.078       .  S
C910        H922   1.080       .  S
C911       C1287   1.489       .  S
C912       C1227   1.481       .  S
C913       C1247   1.487       .  S
C914       C1267   1.484       .  S
N925       C1364   1.357       .  A
N925        C929   1.354       .  A
N925        H957   1.033       .  S
N926        C933   1.346       .  A
N926        C934   1.352   1_556  A
N927       C1366   1.345       .  A
N927        C931   1.348       .  A
N927        H958   1.042       .  S
N928        C935   1.348       .  A
N928        C936   1.350   1_556  A
C929        C937   1.387       .  A
C929        C945   1.421       .  A
C930       N1359   1.357   1_545  A
C930        C946   1.420       .  A
C930        C938   1.386       .  A
C931        C939   1.390       .  A
C931        C948   1.410       .  A
C932       N1361   1.345   1_545  A
C932        C947   1.398       .  A
C932        C940   1.383       .  A
C933        C945   1.411       .  A
C933        C941   1.385       .  A
C934        C948   1.416       .  A
C934        C942   1.386       .  A
C935        C943   1.382       .  A
C935        C946   1.408       .  A
C936        C944   1.383       .  A
C936        C947   1.413       .  A
C937       C1372   1.356       .  A
C937        H949   1.080       .  S
C938       C1371   1.356   1_545  A
C938        H950   1.080       .  S
C939       C1374   1.370       .  A
C939        H951   1.076       .  S
C940       C1373   1.370   1_545  A
C940        H952   1.081   1_655  S
C941        C942   1.384   1_556  A
C941        H953   1.081       .  S
C942        H954   1.083       .  S
C943        C944   1.383   1_556  A
C943        H955   1.081       .  S
C944        H956   1.074       .  S
C945       C1196   1.479       .  S
C946       C1167   1.493       .  S
C947       C1147   1.482       .  S
C948       C1207   1.492       .  S
N959        C963   1.347       .  A
N959        H991   1.042   1_655  S
N960        C967   1.355       .  A
N960        C968   1.345   1_556  A
N961        C965   1.360       .  A
N961        H992   1.037   1_655  S
N962        C969   1.348   1_554  A
N962        C970   1.342       .  A
C963        C971   1.386       .  A
C963        C979   1.412       .  A
C964        C980   1.404       .  A
C964        C972   1.384       .  A
C965        C973   1.385       .  A
C965        C982   1.430       .  A
C966        C981   1.438       .  A
C966        C974   1.390       .  A
C967        C979   1.422       .  A
C967        C975   1.388       .  A
C968        C982   1.413       .  A
C968        C976   1.386       .  A
C969        C977   1.381       .  A
C969        C980   1.400       .  A
C970        C978   1.391       .  A
C970        C981   1.406       .  A
C971        H983   1.080       .  S
C972        H984   1.076       .  S
C973        H985   1.081       .  S
C974        H986   1.077       .  S
C975        C976   1.385   1_556  A
C975        H987   1.080       .  S
C976        H988   1.083       .  S
C977        C978   1.378   1_556  A
C977        H989   1.080       .  S
C978        H990   1.076       .  S
C979       C1067   1.510       .  S
C980       C1096   1.485       .  S
C981       C1107   1.510       .  S
C982       C1127   1.494       .  S
C993        C998   1.405       .  A
C994       C1060   1.487       .  S
C994        C995   1.403       .  A
C995        C996   1.395       .  A
C995       H1000   1.085       .  S
C996       C1236   1.467       .  S
C997       C1156   1.476       .  S
C997        C998   1.391       .  A
C998        H999   1.085       .  S
C1001      C1002   1.436       .  A
C1001      C1006   1.416       .  A
C1002      C1061   1.490       .  S
C1002      C1003   1.410       .  A
C1003      C1004   1.399       .  A
C1003      H1008   1.085       .  S
C1004      C1216   1.483       .  S
C1004      C1005   1.410       .  A
C1005      C1136   1.491       .  S
C1005      C1006   1.405       .  A
C1006      H1007   1.084       .  S
C1009      C1014   1.414       .  A
C1010      C1042   1.486       .  S
C1010      C1011   1.402       .  A
C1011      C1012   1.387       .  A
C1011      H1016   1.086       .  S
C1012      C1256   1.471       .  S
C1013      C1176   1.491       .  S
C1013      C1014   1.402       .  A
C1014      H1015   1.085       .  S
C1017      C1018   1.431       .  A
C1017      C1022   1.409       .  A
C1018      C1057   1.489       .  S
C1018      C1019   1.408       .  A
C1019      C1020   1.399       .  A
C1019      H1024   1.085       .  S
C1020      C1187   1.475       .  S
C1020      C1021   1.409       .  A
C1021      C1076   1.484       .  S
C1021      C1022   1.396       .  A
C1022      H1023   1.085       .  S
C1025      C1046   1.495       .  S
C1025      C1460   1.443       .  A
C1025      C1030   1.407       .  A
C1026      C1459   1.443   1_545  A
C1026      C1027   1.410       .  A
C1027      C1028   1.395       .  A
C1027      H1032   1.086       .  S
C1028      C1276   1.486       .  S
C1028      C1463   1.408   1_545  A
C1029      C1087   1.470       .  S
C1029      C1462   1.408       .  A
C1029      C1030   1.395       .  A
C1030      H1031   1.086       .  S
C1033      C1056   1.491       .  S
C1033      C1468   1.437       .  A
C1033      C1038   1.411       .  A
C1034      C1467   1.437   1_545  A
C1034      C1035   1.406       .  A
C1035      C1036   1.388       .  A
C1035      H1040   1.085       .  S
C1036      C1296   1.479       .  S
C1036      C1471   1.409   1_545  A
C1037      C1116   1.478       .  S
C1037      C1470   1.409       .  A
C1037      C1038   1.400       .  A
C1038      H1039   1.085       .  S
O1041      C1056   1.265       .  A
O1041     Al1049   1.909       .  S
C1042      O1052   1.262       .  A
C1042      O1043   1.269       .  A
O1043     Al1045   1.966       .  S
O1044      C1046   1.264       .  A
O1044     Al1045   1.905       .  S
Al1045     O1053   1.907       .  S
Al1045     O1055   1.958       .  S
Al1045     O1054   1.799       .  S
C1046      O1059   1.267       .  A
O1047      C1057   1.265       .  A
O1047     Al1049   1.909       .  S
O1048      C1061   1.263       .  A
O1048     Al1058   1.904       .  S
Al1049     O1062   1.960       .  S
Al1049     O1059   1.963       .  S
Al1049     O1054   1.800       .  S
O1050      C1057   1.265       .  A
O1050     Al1058   1.949       .  S
O1051      C1060   1.265       .  A
O1051     Al1058   1.939       .  S
O1052     Al1058   1.884       .  S
O1053      C1060   1.264       .  A
O1054     Al1058   1.805       .  S
O1055      C1056   1.270       .  A
C1061      O1062   1.268       .  A
C1063      C1064   1.404       .  A
C1063      C1068   1.411       .  A
C1063      H1073   1.076       .  S
C1064      C1069   1.496       .  S
C1064      C1065   1.398       .  A
C1065      C1066   1.389       .  A
C1065      H1070   1.080       .  S
C1066      C1067   1.409       .  A
C1066      H1071   1.069       .  S
C1067      C1068   1.401       .  A
C1068      H1072   1.080       .  S
C1069      C1074   1.411       .  A
C1069      C1078   1.408       .  A
C1074      C1075   1.403       .  A
C1074      H1079   1.083       .  S
C1075      C1076   1.403       .  A
C1075      H1080   1.082       .  S
C1076      C1077   1.400       .  A
C1077      C1078   1.395       .  A
C1077      H1081   1.083       .  S
C1078      H1082   1.081       .  S
C1083      C1084   1.400       .  A
C1083      C1088   1.396       .  A
C1083      H1093   1.082       .  S
C1084      C1089   1.473       .  S
C1084      C1085   1.406       .  A
C1085      C1086   1.393       .  A
C1085      H1090   1.083       .  S
C1086      C1087   1.399       .  A
C1086      H1525   1.083       .  S
C1087      C1088   1.401       .  A
C1088      H1092   1.082       .  S
C1089      C1094   1.392       .  A
C1089      C1098   1.407       .  A
H1091      C1520   1.083       .  S
C1094      C1095   1.384       .  A
C1094      H1099   1.082       .  S
C1095      C1096   1.400       .  A
C1095      H1100   1.077       .  S
C1096      C1097   1.401       .  A
C1097      C1098   1.404       .  A
C1097      H1101   1.082       .  S
C1098      H1102   1.081       .  S
C1103      C1104   1.403       .  A
C1103      C1108   1.392       .  A
C1103      H1113   1.081       .  S
C1104      C1109   1.490       .  S
C1104      C1105   1.403       .  A
C1105      C1106   1.402       .  A
C1105      H1110   1.079       .  S
C1106      C1107   1.410       .  A
C1106      H1111   1.069       .  S
C1107      C1108   1.403       .  A
C1108      H1112   1.083       .  S
C1109      C1114   1.409       .  A
C1109      C1118   1.406       .  A
C1114      C1115   1.394       .  A
C1114      H1119   1.081       .  S
C1115      C1116   1.398       .  A
C1115      H1554   1.084       .  S
C1116      C1117   1.406       .  A
C1117      C1118   1.400       .  A
C1117      H1121   1.083       .  S
C1118      H1122   1.082       .  S
H1120      C1549   1.084       .  S
C1123      C1124   1.404       .  A
C1123      C1128   1.403       .  A
C1123      H1133   1.080       .  S
C1124      C1129   1.492       .  S
C1124      C1125   1.402       .  A
C1125      C1126   1.397       .  A
C1125      H1130   1.072       .  S
C1126      C1127   1.404       .  A
C1126      H1131   1.080       .  S
C1127      C1128   1.403       .  A
C1128      H1132   1.083       .  S
C1129      C1134   1.408       .  A
C1129      C1138   1.404       .  A
C1134      C1135   1.403       .  A
C1134      H1139   1.081       .  S
C1135      C1136   1.400       .  A
C1135      H1140   1.081       .  S
C1136      C1137   1.406       .  A
C1137      C1138   1.401       .  A
C1137      H1141   1.083       .  S
C1138      H1142   1.080       .  S
C1143      C1144   1.408       .  A
C1143      C1148   1.397       .  A
C1143      H1153   1.081       .  S
C1144      C1149   1.498       .  S
C1144      C1145   1.411   1_655  A
C1145      C1146   1.400       .  A
C1145      H1150   1.082       .  S
C1146      C1147   1.402   1_455  A
C1146      H1151   1.079       .  S
C1147      C1148   1.401       .  A
C1148      H1152   1.084       .  S
C1149      C1154   1.409       .  A
C1149      C1158   1.409       .  A
C1154      C1155   1.394       .  A
C1154      H1159   1.071       .  S
C1155      C1156   1.393       .  A
C1155      H1160   1.081       .  S
C1156      C1157   1.402   1_655  A
C1157      C1158   1.399   1_455  A
C1157      H1161   1.083       .  S
C1158      H1162   1.082   1_655  S
C1163      C1164   1.400       .  A
C1163      C1168   1.395       .  A
C1163      H1173   1.082       .  S
C1164      C1169   1.490       .  S
C1164      C1165   1.410       .  A
C1165      C1166   1.406       .  A
C1165      H1170   1.079       .  S
C1166      C1167   1.403       .  A
C1166      H1171   1.081       .  S
C1167      C1168   1.408       .  A
C1168      H1172   1.084       .  S
C1169      C1174   1.398       .  A
C1169      C1178   1.408       .  A
C1174      C1175   1.399       .  A
C1174      H1179   1.077       .  S
C1175      C1176   1.406       .  A
C1176      C1177   1.403       .  A
C1177      C1178   1.404       .  A
C1177      H1181   1.083       .  S
C1178      H1182   1.081       .  S
C1183      C1184   1.400       .  A
C1183      C1188   1.397       .  A
C1183      H1193   1.081       .  S
C1184      C1189   1.477       .  S
C1184      C1185   1.405       .  A
C1185      C1186   1.396       .  A
C1185      H1190   1.083       .  S
C1186      C1187   1.400       .  A
C1186      H1191   1.083       .  S
C1187      C1188   1.403       .  A
C1188      H1192   1.083       .  S
C1189      C1194   1.405       .  A
C1189      C1198   1.397       .  A
C1194      C1195   1.404       .  A
C1194      H1199   1.078       .  S
C1195      C1196   1.404       .  A
C1195      H1200   1.082       .  S
C1196      C1197   1.402       .  A
C1197      C1198   1.390       .  A
C1197      H1201   1.081       .  S
C1198      H1202   1.083       .  S
C1203      C1204   1.402       .  A
C1203      C1208   1.399       .  A
C1203      H1213   1.077       .  S
C1204      C1209   1.487       .  S
C1204      C1205   1.404       .  A
C1205      C1206   1.399       .  A
C1205      H1210   1.083       .  S
C1206      C1207   1.401       .  A
C1206      H1211   1.073       .  S
C1207      C1208   1.401       .  A
C1208      H1212   1.079       .  S
C1209      C1214   1.406       .  A
C1209      C1218   1.404       .  A
C1214      C1215   1.399       .  A
C1214      H1219   1.083       .  S
C1215      C1216   1.403       .  A
C1215      H1220   1.083       .  S
C1216      C1217   1.402       .  A
C1217      C1218   1.400       .  A
C1217      H1221   1.082       .  S
C1218      H1222   1.080       .  S
C1223      C1224   1.402       .  A
C1223      C1228   1.399       .  A
C1223      H1233   1.083       .  S
C1224      C1229   1.471       .  S
C1224      C1225   1.395       .  A
C1225      C1226   1.390       .  A
C1225      H1230   1.075       .  S
C1226      C1227   1.393       .  A
C1226      H1231   1.078       .  S
C1227      C1228   1.401       .  A
C1228      H1232   1.072       .  S
C1229      C1234   1.400       .  A
C1229      C1238   1.405       .  A
C1234      C1235   1.397       .  A
C1234      H1239   1.082       .  S
C1235      C1236   1.405       .  A
C1235      H1240   1.081       .  S
C1236      C1237   1.393       .  A
C1237      C1238   1.389       .  A
C1237      H1241   1.082       .  S
C1238      H1242   1.076       .  S
C1243      C1244   1.407       .  A
C1243      C1248   1.398       .  A
C1243      H1253   1.069       .  S
C1244      C1249   1.488       .  S
C1244      C1245   1.401       .  A
C1245      C1246   1.387       .  A
C1245      H1250   1.080       .  S
C1246      C1247   1.409       .  A
C1246      H1251   1.084       .  S
C1247      C1248   1.397       .  A
C1248      H1252   1.081       .  S
C1249      C1254   1.411       .  A
C1249      C1258   1.407       .  A
C1254      C1255   1.396       .  A
C1254      H1259   1.079       .  S
C1255      C1256   1.397       .  A
C1255      H1260   1.081       .  S
C1256      C1257   1.399       .  A
C1257      C1258   1.389       .  A
C1257      H1261   1.084       .  S
C1258      H1262   1.080       .  S
C1263      C1264   1.407       .  A
C1263      C1268   1.396       .  A
C1263      H1273   1.082       .  S
C1264      C1269   1.497       .  S
C1264      C1265   1.410       .  A
C1265      C1266   1.404       .  A
C1265      H1270   1.078       .  S
C1266      C1267   1.401       .  A
C1266      H1271   1.080       .  S
C1267      C1268   1.403       .  A
C1268      H1272   1.080       .  S
C1269      C1274   1.411       .  A
C1269      C1278   1.407       .  A
C1274      C1275   1.401       .  A
C1274      H1279   1.082       .  S
C1275      C1276   1.401       .  A
C1275      H1280   1.083       .  S
C1276      C1277   1.401       .  A
C1277      C1278   1.400       .  A
C1277      H1281   1.083       .  S
C1278      H1282   1.081       .  S
C1283      C1284   1.415       .  A
C1283      C1288   1.400       .  A
C1283      H1293   1.080       .  S
C1284      C1289   1.504       .  S
C1284      C1285   1.411       .  A
C1285      C1286   1.393       .  A
C1285      H1290   1.079       .  S
C1286      C1287   1.403       .  A
C1286      H1291   1.084       .  S
C1287      C1288   1.401       .  A
C1288      H1292   1.083       .  S
C1289      C1294   1.411       .  A
C1289      C1298   1.412       .  A
C1294      C1295   1.398       .  A
C1294      H1299   1.076       .  S
C1295      C1296   1.396       .  A
C1295      H1300   1.081       .  S
C1296      C1297   1.398       .  A
C1297      C1298   1.395       .  A
C1297      H1301   1.084       .  S
C1298      H1302   1.079       .  S
O1303      C1318   1.263       .  A
O1303     Al1311   1.900       .  S
C1304      O1314   1.264       .  A
C1304      O1305   1.270       .  A
C1304      C1468   1.486       .  S
O1305     Al1307   1.962       .  S
O1306      C1308   1.261       .  A
O1306     Al1307   1.895       .  S
Al1307     O1315   1.898       .  S
Al1307     O1317   1.963       .  S
Al1307     O1316   1.797       .  S
C1308      O1321   1.262       .  A
C1308      C1427   1.483       .  S
O1309      C1319   1.264       .  A
O1309     Al1311   1.907       .  S
O1310      C1323   1.263       .  A
O1310     Al1320   1.900       .  S
Al1311     O1324   1.941       .  S
Al1311     O1321   1.935       .  S
Al1311     O1316   1.803       .  S
O1312      C1319   1.269       .  A
O1312     Al1320   1.970       .  S
O1313      C1322   1.265       .  A
O1313     Al1320   1.950       .  S
O1314     Al1320   1.883       .  S
O1315      C1322   1.261       .  A
O1316     Al1320   1.797       .  S
O1317      C1318   1.272       .  A
C1318      C1443   1.488       .  S
C1319      C1435   1.495       .  S
C1322      C1460   1.484       .  S
C1323      O1324   1.264       .  A
C1323      C1451   1.477       .  S
N1325      C1330   1.359       .  A
N1325      C1329   1.355       .  A
N1325      H1357   1.038       .  S
N1326      C1333   1.344       .  A
N1326      C1334   1.349   1_554  A
N1327      C1332   1.347       .  A
N1327      C1331   1.347       .  A
N1327      H1358   1.041       .  S
N1328      C1335   1.340   1_556  A
N1328      C1336   1.347       .  A
C1329      C1337   1.383       .  A
C1329      C1345   1.423       .  A
C1330      C1346   1.426       .  A
C1330      C1338   1.390       .  A
C1331      C1339   1.377       .  A
C1331      C1348   1.404       .  A
C1332      C1347   1.405       .  A
C1332      C1340   1.384       .  A
C1333      C1345   1.412       .  A
C1333      C1341   1.389       .  A
C1334      C1348   1.407       .  A
C1334      C1342   1.382       .  A
C1335      C1343   1.384       .  A
C1335      C1346   1.403       .  A
C1336      C1344   1.385       .  A
C1336      C1347   1.404       .  A
C1337      C1338   1.360       .  A
C1337      H1349   1.077       .  S
C1338      H1350   1.078       .  S
C1339      C1340   1.365       .  A
C1339      H1351   1.078       .  S
C1340      H1352   1.080       .  S
C1341      C1342   1.385   1_554  A
C1341      H1353   1.082       .  S
C1342      H1354   1.081       .  S
C1343      C1344   1.381   1_554  A
C1343      H1355   1.078       .  S
C1344      H1356   1.080       .  S
C1345      C1721   1.489       .  S
C1346      C1661   1.481       .  S
C1347      C1681   1.487       .  S
C1348      C1701   1.484       .  S
N1359      C1363   1.354       .  A
N1359      H1391   1.033       .  S
N1360      C1367   1.346       .  A
N1360      C1368   1.352   1_556  A
N1361      C1365   1.348       .  A
N1361      H1392   1.042       .  S
N1362      C1369   1.348       .  A
N1362      C1370   1.350   1_556  A
C1363      C1371   1.387       .  A
C1363      C1379   1.421       .  A
C1364      C1380   1.420       .  A
C1364      C1372   1.386       .  A
C1365      C1373   1.390       .  A
C1365      C1382   1.410       .  A
C1366      C1381   1.398       .  A
C1366      C1374   1.383       .  A
C1367      C1379   1.411       .  A
C1367      C1375   1.385       .  A
C1368      C1382   1.416       .  A
C1368      C1376   1.386       .  A
C1369      C1377   1.382       .  A
C1369      C1380   1.408       .  A
C1370      C1378   1.383       .  A
C1370      C1381   1.413       .  A
C1371      H1383   1.080       .  S
C1372      H1384   1.080       .  S
C1373      H1385   1.076       .  S
C1374      H1386   1.081   1_655  S
C1375      C1376   1.384   1_556  A
C1375      H1387   1.081       .  S
C1376      H1388   1.083       .  S
C1377      C1378   1.383   1_556  A
C1377      H1389   1.081       .  S
C1378      H1390   1.074       .  S
C1379      C1630   1.479       .  S
C1380      C1601   1.493       .  S
C1381      C1581   1.482       .  S
C1382      C1641   1.492       .  S
N1393      C1397   1.347       .  A
N1393      H1425   1.042   1_655  S
N1394      C1401   1.355       .  A
N1394      C1402   1.345   1_556  A
N1395      C1399   1.360       .  A
N1395      H1426   1.037   1_655  S
N1396      C1403   1.348   1_554  A
N1396      C1404   1.342       .  A
C1397      C1405   1.386       .  A
C1397      C1413   1.412       .  A
C1398      C1414   1.404       .  A
C1398      C1406   1.384       .  A
C1399      C1407   1.385       .  A
C1399      C1416   1.430       .  A
C1400      C1415   1.438       .  A
C1400      C1408   1.390       .  A
C1401      C1413   1.422       .  A
C1401      C1409   1.388       .  A
C1402      C1416   1.413       .  A
C1402      C1410   1.386       .  A
C1403      C1411   1.381       .  A
C1403      C1414   1.400       .  A
C1404      C1412   1.391       .  A
C1404      C1415   1.406       .  A
C1405      H1417   1.080       .  S
C1406      H1418   1.076       .  S
C1407      H1419   1.081       .  S
C1408      H1420   1.077       .  S
C1409      C1410   1.385   1_556  A
C1409      H1421   1.080       .  S
C1410      H1422   1.083       .  S
C1411      C1412   1.378   1_556  A
C1411      H1423   1.080       .  S
C1412      H1424   1.076       .  S
C1413      C1501   1.510       .  S
C1414      C1530   1.485       .  S
C1415      C1541   1.510       .  S
C1416      C1561   1.494       .  S
C1427      C1432   1.405       .  A
C1428      C1494   1.487       .  S
C1428      C1429   1.403       .  A
C1429      C1430   1.395       .  A
C1429      H1434   1.085       .  S
C1430      C1670   1.467       .  S
C1431      C1590   1.476       .  S
C1431      C1432   1.391       .  A
C1432      H1433   1.085       .  S
C1435      C1436   1.436       .  A
C1435      C1440   1.416       .  A
C1436      C1495   1.490       .  S
C1436      C1437   1.410       .  A
C1437      C1438   1.399       .  A
C1437      H1442   1.085       .  S
C1438      C1650   1.483       .  S
C1438      C1439   1.410       .  A
C1439      C1570   1.491       .  S
C1439      C1440   1.405       .  A
C1440      H1441   1.084       .  S
C1443      C1448   1.414       .  A
C1444      C1476   1.486       .  S
C1444      C1445   1.402       .  A
C1445      C1446   1.387       .  A
C1445      H1450   1.086       .  S
C1446      C1690   1.471       .  S
C1447      C1610   1.491       .  S
C1447      C1448   1.402       .  A
C1448      H1449   1.085       .  S
C1451      C1452   1.431       .  A
C1451      C1456   1.409       .  A
C1452      C1491   1.489       .  S
C1452      C1453   1.408       .  A
C1453      C1454   1.399       .  A
C1453      H1458   1.085       .  S
C1454      C1621   1.475       .  S
C1454      C1455   1.409       .  A
C1455      C1510   1.484       .  S
C1455      C1456   1.396       .  A
C1456      H1457   1.085       .  S
C1459      C1480   1.495       .  S
C1459      C1464   1.407       .  A
C1460      C1461   1.410       .  A
C1461      C1462   1.395       .  A
C1461      H1466   1.086       .  S
C1462      C1710   1.486       .  S
C1463      C1521   1.470       .  S
C1463      C1464   1.395       .  A
C1464      H1465   1.086       .  S
C1467      C1490   1.491       .  S
C1467      C1472   1.411       .  A
C1468      C1469   1.406       .  A
C1469      C1470   1.388       .  A
C1469      H1474   1.085       .  S
C1470      C1730   1.479       .  S
C1471      C1550   1.478       .  S
C1471      C1472   1.400       .  A
C1472      H1473   1.085       .  S
O1475      C1490   1.265       .  A
O1475     Al1483   1.909       .  S
C1476      O1486   1.262       .  A
C1476      O1477   1.269       .  A
O1477     Al1479   1.966       .  S
O1478      C1480   1.264       .  A
O1478     Al1479   1.905       .  S
Al1479     O1487   1.907       .  S
Al1479     O1489   1.958       .  S
Al1479     O1488   1.799       .  S
C1480      O1493   1.267       .  A
O1481      C1491   1.265       .  A
O1481     Al1483   1.909       .  S
O1482      C1495   1.263       .  A
O1482     Al1492   1.904       .  S
Al1483     O1496   1.960       .  S
Al1483     O1493   1.963       .  S
Al1483     O1488   1.800       .  S
O1484      C1491   1.265       .  A
O1484     Al1492   1.949       .  S
O1485      C1494   1.265       .  A
O1485     Al1492   1.939       .  S
O1486     Al1492   1.884       .  S
O1487      C1494   1.264       .  A
O1488     Al1492   1.805       .  S
O1489      C1490   1.270       .  A
C1495      O1496   1.268       .  A
C1497      C1498   1.404       .  A
C1497      C1502   1.411       .  A
C1497      H1507   1.076       .  S
C1498      C1503   1.496       .  S
C1498      C1499   1.398       .  A
C1499      C1500   1.389       .  A
C1499      H1504   1.080       .  S
C1500      C1501   1.409       .  A
C1500      H1505   1.069       .  S
C1501      C1502   1.401       .  A
C1502      H1506   1.080       .  S
C1503      C1508   1.411       .  A
C1503      C1512   1.408       .  A
C1508      C1509   1.403       .  A
C1508      H1513   1.083       .  S
C1509      C1510   1.403       .  A
C1509      H1514   1.082       .  S
C1510      C1511   1.400       .  A
C1511      C1512   1.395       .  A
C1511      H1515   1.083       .  S
C1512      H1516   1.081       .  S
C1517      C1518   1.400       .  A
C1517      C1522   1.396       .  A
C1517      H1527   1.082       .  S
C1518      C1523   1.473       .  S
C1518      C1519   1.406       .  A
C1519      C1520   1.393       .  A
C1519      H1524   1.083       .  S
C1520      C1521   1.399       .  A
C1521      C1522   1.401       .  A
C1522      H1526   1.082       .  S
C1523      C1528   1.392       .  A
C1523      C1532   1.407       .  A
C1528      C1529   1.384       .  A
C1528      H1533   1.082       .  S
C1529      C1530   1.400       .  A
C1529      H1534   1.077       .  S
C1530      C1531   1.401       .  A
C1531      C1532   1.404       .  A
C1531      H1535   1.082       .  S
C1532      H1536   1.081       .  S
C1537      C1538   1.403       .  A
C1537      C1542   1.392       .  A
C1537      H1547   1.081       .  S
C1538      C1543   1.490       .  S
C1538      C1539   1.403       .  A
C1539      C1540   1.402       .  A
C1539      H1544   1.079       .  S
C1540      C1541   1.410       .  A
C1540      H1545   1.069       .  S
C1541      C1542   1.403       .  A
C1542      H1546   1.083       .  S
C1543      C1548   1.409       .  A
C1543      C1552   1.406       .  A
C1548      C1549   1.394       .  A
C1548      H1553   1.081       .  S
C1549      C1550   1.398       .  A
C1550      C1551   1.406       .  A
C1551      C1552   1.400       .  A
C1551      H1555   1.083       .  S
C1552      H1556   1.082       .  S
C1557      C1558   1.404       .  A
C1557      C1562   1.403       .  A
C1557      H1567   1.080       .  S
C1558      C1563   1.492       .  S
C1558      C1559   1.402       .  A
C1559      C1560   1.397       .  A
C1559      H1564   1.072       .  S
C1560      C1561   1.404       .  A
C1560      H1565   1.080       .  S
C1561      C1562   1.403       .  A
C1562      H1566   1.083       .  S
C1563      C1568   1.408       .  A
C1563      C1572   1.404       .  A
C1568      C1569   1.403       .  A
C1568      H1573   1.081       .  S
C1569      C1570   1.400       .  A
C1569      H1574   1.081       .  S
C1570      C1571   1.406       .  A
C1571      C1572   1.401       .  A
C1571      H1575   1.083       .  S
C1572      H1576   1.080       .  S
C1577      C1578   1.408       .  A
C1577      C1582   1.397       .  A
C1577      H1587   1.081       .  S
C1578      C1583   1.498       .  S
C1578      C1579   1.411   1_655  A
C1579      C1580   1.400       .  A
C1579      H1584   1.082       .  S
C1580      C1581   1.402   1_455  A
C1580      H1585   1.079       .  S
C1581      C1582   1.401       .  A
C1582      H1586   1.084       .  S
C1583      C1588   1.409       .  A
C1583      C1592   1.409       .  A
C1588      C1589   1.394       .  A
C1588      H1593   1.071       .  S
C1589      C1590   1.393       .  A
C1589      H1594   1.081       .  S
C1590      C1591   1.402   1_655  A
C1591      C1592   1.399   1_455  A
C1591      H1595   1.083       .  S
C1592      H1596   1.082   1_655  S
C1597      C1598   1.400       .  A
C1597      C1602   1.395       .  A
C1597      H1607   1.082       .  S
C1598      C1603   1.490       .  S
C1598      C1599   1.410       .  A
C1599      C1600   1.406       .  A
C1599      H1604   1.079       .  S
C1600      C1601   1.403       .  A
C1600      H1605   1.081       .  S
C1601      C1602   1.408       .  A
C1602      H1606   1.084       .  S
C1603      C1608   1.398       .  A
C1603      C1612   1.408       .  A
C1608      C1609   1.399       .  A
C1608      H1613   1.077       .  S
C1609      C1610   1.406       .  A
C1610      C1611   1.403       .  A
C1611      C1612   1.404       .  A
C1611      H1615   1.083       .  S
C1612      H1616   1.081       .  S
C1617      C1618   1.400       .  A
C1617      C1622   1.397       .  A
C1617      H1627   1.081       .  S
C1618      C1623   1.477       .  S
C1618      C1619   1.405       .  A
C1619      C1620   1.396       .  A
C1619      H1624   1.083       .  S
C1620      C1621   1.400       .  A
C1620      H1625   1.083       .  S
C1621      C1622   1.403       .  A
C1622      H1626   1.083       .  S
C1623      C1628   1.405       .  A
C1623      C1632   1.397       .  A
C1628      C1629   1.404       .  A
C1628      H1633   1.078       .  S
C1629      C1630   1.404       .  A
C1629      H1634   1.082       .  S
C1630      C1631   1.402       .  A
C1631      C1632   1.390       .  A
C1631      H1635   1.081       .  S
C1632      H1636   1.083       .  S
C1637      C1638   1.402       .  A
C1637      C1642   1.399       .  A
C1637      H1647   1.077       .  S
C1638      C1643   1.487       .  S
C1638      C1639   1.404       .  A
C1639      C1640   1.399       .  A
C1639      H1644   1.083       .  S
C1640      C1641   1.401       .  A
C1640      H1645   1.073       .  S
C1641      C1642   1.401       .  A
C1642      H1646   1.079       .  S
C1643      C1648   1.406       .  A
C1643      C1652   1.404       .  A
C1648      C1649   1.399       .  A
C1648      H1653   1.083       .  S
C1649      C1650   1.403       .  A
C1649      H1654   1.083       .  S
C1650      C1651   1.402       .  A
C1651      C1652   1.400       .  A
C1651      H1655   1.082       .  S
C1652      H1656   1.080       .  S
C1657      C1658   1.402       .  A
C1657      C1662   1.399       .  A
C1657      H1667   1.083       .  S
C1658      C1663   1.471       .  S
C1658      C1659   1.395       .  A
C1659      C1660   1.390       .  A
C1659      H1664   1.075       .  S
C1660      C1661   1.393       .  A
C1660      H1665   1.078       .  S
C1661      C1662   1.401       .  A
C1662      H1666   1.072       .  S
C1663      C1668   1.400       .  A
C1663      C1672   1.405       .  A
C1668      C1669   1.397       .  A
C1668      H1673   1.082       .  S
C1669      C1670   1.405       .  A
C1669      H1674   1.081       .  S
C1670      C1671   1.393       .  A
C1671      C1672   1.389       .  A
C1671      H1675   1.082       .  S
C1672      H1676   1.076       .  S
C1677      C1678   1.407       .  A
C1677      C1682   1.398       .  A
C1677      H1687   1.069       .  S
C1678      C1683   1.488       .  S
C1678      C1679   1.401       .  A
C1679      C1680   1.387       .  A
C1679      H1684   1.080       .  S
C1680      C1681   1.409       .  A
C1680      H1685   1.084       .  S
C1681      C1682   1.397       .  A
C1682      H1686   1.081       .  S
C1683      C1688   1.411       .  A
C1683      C1692   1.407       .  A
C1688      C1689   1.396       .  A
C1688      H1693   1.079       .  S
C1689      C1690   1.397       .  A
C1689      H1694   1.081       .  S
C1690      C1691   1.399       .  A
C1691      C1692   1.389       .  A
C1691      H1695   1.084       .  S
C1692      H1696   1.080       .  S
C1697      C1698   1.407       .  A
C1697      C1702   1.396       .  A
C1697      H1707   1.082       .  S
C1698      C1703   1.497       .  S
C1698      C1699   1.410       .  A
C1699      C1700   1.404       .  A
C1699      H1704   1.078       .  S
C1700      C1701   1.401       .  A
C1700      H1705   1.080       .  S
C1701      C1702   1.403       .  A
C1702      H1706   1.080       .  S
C1703      C1708   1.411       .  A
C1703      C1712   1.407       .  A
C1708      C1709   1.401       .  A
C1708      H1713   1.082       .  S
C1709      C1710   1.401       .  A
C1709      H1714   1.083       .  S
C1710      C1711   1.401       .  A
C1711      C1712   1.400       .  A
C1711      H1715   1.083       .  S
C1712      H1716   1.081       .  S
C1717      C1718   1.415       .  A
C1717      C1722   1.400       .  A
C1717      H1727   1.080       .  S
C1718      C1723   1.504       .  S
C1718      C1719   1.411       .  A
C1719      C1720   1.393       .  A
C1719      H1724   1.079       .  S
C1720      C1721   1.403       .  A
C1720      H1725   1.084       .  S
C1721      C1722   1.401       .  A
C1722      H1726   1.083       .  S
C1723      C1728   1.411       .  A
C1723      C1732   1.412       .  A
C1728      C1729   1.398       .  A
C1728      H1733   1.076       .  S
C1729      C1730   1.396       .  A
C1729      H1734   1.081       .  S
C1730      C1731   1.398       .  A
C1731      C1732   1.395       .  A
C1731      H1735   1.084       .  S
C1732      H1736   1.079       .  S
