geometry optimzed in LAMMPS
_audit_creation_date              2020-11-30 
_audit_creation_method            'lammps2cif' 
_symmetry_space_group_name_H-M    'P1' 
_symmetry_Int_Tables_number       1 
_symmetry_cell_setting            triclinic 
loop_ 
_symmetry_equiv_pos_as_xyz 
  x,y,z 
_cell_length_a                    51.71136189 
_cell_length_b                    51.677618548807786 
_cell_length_c                    43.61395967871181 
_cell_angle_alpha                 90.08319591207837 
_cell_angle_beta                  90.02732931439955 
_cell_angle_gamma                 119.95828237228275 
loop_ 
_atom_site_label 
_atom_site_type_symbol 
_atom_site_fract_x 
_atom_site_fract_y 
_atom_site_fract_z 
_atom_site_charge 
C1          C  0.22507029  0.21756439  0.14976153     0.79500
N2          N  0.24900666  0.23940206  0.16487625    -0.78800
C3          C  0.27239978  0.26147527  0.14947720     0.82000
N4          N  0.27183305  0.26151032  0.11836748    -0.78700
C5          C  0.24815696  0.23967523  0.10283550     0.82100
N6          N  0.22469749  0.21779221  0.11858608    -0.80400
C7          C  0.22360899  0.21950461  0.02226647     0.79500
N8          N  0.22435589  0.21847461  0.05335577    -0.78800
C9          C  0.24791269  0.24011689  0.06917069     0.82000
N10         N  0.27104374  0.26262229  0.05373435    -0.78700
C11         C  0.27061406  0.26384659  0.02263547     0.82100
N12         N  0.24669763  0.24229130  0.00713441    -0.80400
C13         C  0.24346960  0.47056217  0.14907921     0.79500
N14         N  0.24261521  0.46916420  0.11794654    -0.78800
C15         C  0.21948592  0.46857410  0.10242783     0.82000
N16         N  0.19706117  0.46910675  0.11818819    -0.78700
C17         C  0.19769054  0.47044747  0.14930091     0.82100
N18         N  0.22105809  0.47134340  0.16446151    -0.80400
C19         C  0.24312589  0.47232594  0.02158674     0.79500
N20         N  0.24281236  0.47082790  0.05271071    -0.78800
C21         C  0.21927601  0.46875799  0.06874110     0.82000
N22         N  0.19592927  0.46797330  0.05350315    -0.78700
C23         C  0.19589256  0.46907883  0.02239336     0.82100
N24         N  0.21964389  0.47144146  0.00673947    -0.80400
C25         C  0.48832958  0.23900153  0.14932471     0.79500
N26         N  0.49061190  0.24061287  0.11823511    -0.78800
C27         C  0.49113432  0.21831481  0.10204139     0.82000
N28         N  0.48975408  0.19460101  0.11708848    -0.78700
C29         C  0.48778505  0.19299441  0.14814081     0.82100
N30         N  0.48695941  0.21519891  0.16392737    -0.80400
C31         C  0.49867971  0.24527015  0.02202230     0.79500
N32         N  0.50088224  0.22354965  0.00668624    -0.78800
C33         C  0.49917508  0.19980664  0.02187762     0.82000
N34         N  0.49568732  0.19818389  0.05280119    -0.78700
C35         C  0.49393476  0.22000269  0.06846879     0.82100
N36         N  0.49510523  0.24337023  0.05297064    -0.80400
O37         O  0.41867683  0.00019997  0.30056773    -0.88900
C38         C  0.07032234  0.06598071  0.37989464     1.11200
O39         O  0.45515315  0.47749309  0.33512300    -1.36700
O40         O  0.04966733  0.06859412  0.29953017    -0.90400
O41         O  0.39502643  0.45082956  0.30054835    -0.91000
O42         O  0.45624645  0.44565826  0.27117199    -0.79800
O43         O  0.48442304  0.03487469  0.30538104    -1.01900
C44         C  0.03983485  0.47690569  0.27981787     1.21200
O45         O  0.48730817  0.44744650  0.33611428    -1.36800
Mn46       Mn  0.48650350  0.47867924  0.36874746     1.82100
O47         O  0.01686369  0.47708735  0.27104668    -0.78900
O48         O  0.07616442  0.04522179  0.30142562    -0.88300
C49         C  0.03970848  0.47839698  0.39218245     1.12300
C50         C  0.07054317  0.06448533  0.28986701     1.07000
O51         O  0.45569496  0.44819540  0.40056573    -0.79900
O52         O  0.01639478  0.00921600  0.33520608    -1.33600
O53         O  0.42879021  0.41947522  0.36500304    -0.99100
C54         C  0.48842060  0.39198904  0.29245533     1.05700
Mn55       Mn  0.05910757  0.01289483  0.33600484     1.48600
O56         O  0.46344526  0.38705465  0.30304624    -0.88300
Mn57       Mn  0.41331863  0.43721523  0.33566641     1.49600
O58         O  0.41919692  0.00153986  0.36886352    -0.92100
C59         C  0.48422293  0.03013822  0.27800399     1.18900
C60         C  0.39940509  0.47724350  0.37944195     1.11000
Mn61       Mn  0.48673116  0.47772273  0.30212086     1.81000
O62         O  0.04443890  0.47856289  0.36479867    -0.97300
Mn63       Mn  0.45147764  0.01631116  0.33450601     1.49300
C64         C  0.39934706  0.47554628  0.28978962     1.07500
Mn65       Mn  0.02598007  0.44465556  0.33633645     1.49900
C66         C  0.48881829  0.39366463  0.38204805     1.10400
O67         O  0.42880689  0.41871028  0.30746430    -1.03100
O68         O  0.07567598  0.04580468  0.37041820    -0.92800
C69         C  0.43305650  0.42274764  0.27995795     1.21700
O70         O  0.04437741  0.47775702  0.30730309    -1.03500
O71         O  0.04998584  0.07000633  0.36841605    -0.90900
O72         O  0.01147869  0.41266320  0.37104029    -0.90500
O73         O  0.39498173  0.45212915  0.36962979    -0.90500
Mn74       Mn  0.01740702  0.05080621  0.33417700     1.47900
O75         O  0.01634179  0.47807274  0.40039633    -0.79000
C76         C  0.43318264  0.42433064  0.39239906     1.14700
O77         O  0.48555025  0.00758703  0.26983890    -0.77700
O78         O  0.48640418  0.00986002  0.39934014    -0.77300
Mn79       Mn  0.44804751  0.40483508  0.33677350     1.51100
O80         O  0.01125796  0.41160899  0.30221226    -0.89700
O81         O  0.48522608  0.03618128  0.36285160    -0.97200
O82         O  0.46353615  0.38818733  0.37177324    -0.92200
C83         C  0.48591573  0.03263040  0.39037912     1.12500
C84         C  0.48585804  0.12245961  0.50008994    -0.11500
C85         C  0.49676731  0.12724043  0.46989761     0.05600
C86         C  0.00008868  0.15203206  0.45714669    -0.10300
C87         C  0.00104874  0.17533951  0.47418587    -0.11900
C88         C  0.49984361  0.17540145  0.00466366    -0.01700
C89         C  0.48754227  0.14608558  0.51740928    -0.10800
C90         C  0.49288365  0.10196916  0.45032078     0.05600
H91         H  0.00811746  0.15640210  0.43374386     0.07600
H92         H  0.00948880  0.19691988  0.46335727     0.11000
H93         H  0.48079142  0.14275694  0.04120520     0.11300
H94         H  0.47509035  0.10029251  0.50995413     0.07600
C95         C  0.49623654  0.07848244  0.46221232    -0.11500
C96         C  0.49330109  0.05534351  0.44304481    -0.10800
C97         C  0.48702177  0.05539395  0.41171702    -0.01700
C98         C  0.48294463  0.07845996  0.40013774    -0.11900
C99         C  0.48571985  0.10133263  0.41917392    -0.10300
H100        H  0.50183967  0.07838095  0.48611093     0.07600
H101        H  0.49659965  0.03784978  0.45254348     0.11300
H102        H  0.96944022  0.07378935  0.37704392     0.11000
H103        H  0.97096425  0.11206490  0.41043251     0.07600
C104        C  0.51482394  0.30304850  0.46159743    -0.11500
C105        C  0.49482768  0.31297785  0.46935284     0.05600
C106        C  0.47623620  0.30056199  0.49500361    -0.10300
C107        C  0.48122424  0.28207812  0.01407654    -0.11900
C108        C  0.49738025  0.26850224  0.50445021    -0.01700
C109        C  0.51585266  0.28080358  0.47878263    -0.10800
C110        C  0.49296285  0.33553679  0.44995757     0.05600
H111        H  0.46543349  0.31240455  0.00346410     0.07600
H112        H  0.46753654  0.27383979  0.03444750     0.11000
H113        H  0.53112969  0.27320821  0.47203759     0.11300
H114        H  0.52914002  0.31196701  0.44172802     0.07600
C115        C  0.51912676  0.36066614  0.43956076    -0.11500
C116        C  0.51766170  0.38023305  0.41854391    -0.10800
C117        C  0.48996258  0.37499531  0.40722773    -0.01700
C118        C  0.46368449  0.35069619  0.41888092    -0.11900
C119        C  0.46518422  0.33117931  0.44009332    -0.10300
H120        H  0.03716185  0.36342543  0.44911140     0.07600
H121        H  0.03567764  0.39788244  0.41188445     0.11300
H122        H  0.44198383  0.34615704  0.41085967     0.11000
H123        H  0.44466771  0.31194650  0.44774094     0.07600
C124        C  0.48105701  0.11789634  0.16688026    -0.11500
C125        C  0.48536038  0.12023693  0.19884336     0.05600
C126        C  0.99180536  0.14784257  0.21345415    -0.10300
C127        C  0.99235377  0.17105733  0.19673017    -0.11900
C128        C  0.48730235  0.16789629  0.16507423    -0.01700
C129        C  0.48207796  0.14155793  0.15011827    -0.10800
C130        C  0.48302134  0.09505324  0.21746465     0.05600
H131        H  0.99621157  0.15098219  0.23784754     0.07600
H132        H  0.99690216  0.19121149  0.20883934     0.11000
H133        H  0.47829175  0.13903814  0.12559865     0.11300
H134        H  0.47624101  0.09757212  0.15496881     0.07600
C135        C  0.46966670  0.08946312  0.24655549    -0.11500
C136        C  0.46961314  0.06789585  0.26564099    -0.10800
C137        C  0.48239500  0.05085571  0.25600345    -0.01700
C138        C  0.99443101  0.05556793  0.22644504    -0.11900
C139        C  0.99506160  0.07781124  0.20741549    -0.10300
H140        H  0.45948650  0.10207051  0.25481379     0.07600
H141        H  0.45973533  0.06471377  0.28820103     0.11300
H142        H  0.00411508  0.04244614  0.21836046     0.11000
H143        H  0.00531866  0.08142539  0.18503538     0.07600
C144        C  0.01177410  0.35751220  0.22965017    -0.11500
C145        C  0.48808537  0.33099363  0.22477992     0.05600
C146        C  0.46129578  0.32648614  0.23765644    -0.10300
C147        C  0.46137251  0.34683984  0.25879417    -0.11900
C148        C  0.48834365  0.37197548  0.26793169    -0.01700
C149        C  0.01201847  0.37760674  0.25141349    -0.10800
C150        C  0.48795893  0.30778452  0.20475843     0.05600
H151        H  0.44029482  0.30691504  0.23162777     0.07600
H152        H  0.44029929  0.34240239  0.26857331     0.11000
H153        H  0.03278520  0.39796758  0.25602524     0.11300
H154        H  0.03239961  0.36263433  0.21826479     0.07600
C155        C  0.99998751  0.31466891  0.17498707    -0.11500
C156        C  0.00008804  0.29246143  0.15650704    -0.10800
C157        C  0.48758142  0.26276627  0.16766303    -0.01700
C158        C  0.47465873  0.25604927  0.19700970    -0.11900
C159        C  0.47462736  0.27823500  0.21521762    -0.10300
H160        H  0.01090263  0.33749795  0.16682311     0.07600
H161        H  0.01138939  0.29861345  0.13459316     0.11300
H162        H  0.46444436  0.23351789  0.20594837     0.11000
H163        H  0.46458877  0.27242116  0.23777140     0.07600
C164        C  0.29689605  0.48813016  0.45468225    -0.11500
C165        C  0.31566264  0.47813660  0.46636536     0.05600
C166        C  0.31069919  0.96643323  0.49639887    -0.10300
C167        C  0.28760507  0.96501505  0.51443975    -0.11900
C168        C  0.26870167  0.47478148  0.50231151    -0.01700
C169        C  0.27385819  0.48699582  0.97390637    -0.10800
C170        C  0.33910907  0.47854437  0.44657137     0.05600
H171        H  0.32509772  0.95880848  0.50584812     0.07600
H172        H  0.28449102  0.95610114  0.53745399     0.11000
H173        H  0.26015036  0.49542381  0.96439254     0.11300
H174        H  0.29981986  0.49665606  0.43150266     0.07600
C175        C  0.34092590  0.45255434  0.44221534    -0.11500
C176        C  0.36092810  0.45214239  0.42084528    -0.10800
C177        C  0.37976114  0.47787572  0.40381406    -0.01700
C178        C  0.37873059  0.50419280  0.40926020    -0.11900
C179        C  0.35846279  0.50443650  0.43021354    -0.10300
H180        H  0.32607608  0.43227195  0.45448295     0.07600
H181        H  0.36132360  0.43158550  0.41732322     0.11300
H182        H  0.39294398  0.52442687  0.39660751     0.11000
H183        H  0.35757271  0.52478043  0.43334413     0.07600
C184        C  0.11152112  0.98837919  0.42498106    -0.11500
C185        C  0.10175376  0.47114062  0.45188159     0.05600
C186        C  0.07155769  0.45816882  0.46043583    -0.10300
C187        C  0.05127638  0.46147468  0.44174830    -0.11900
C188        C  0.06093734  0.47760867  0.41421941    -0.01700
C189        C  0.09146391  0.99147641  0.40621611    -0.10800
C190        C  0.12352215  0.46695006  0.47037346     0.05600
H191        H  0.06350590  0.44478708  0.48102503     0.07600
H192        H  0.02793245  0.45046284  0.44812268     0.11000
H193        H  0.09948735  0.00372329  0.38493418     0.11300
H194        H  0.13464320  0.99875647  0.41791418     0.07600
C195        C  0.14479316  0.46200920  0.45554618    -0.11500
C196        C  0.16747776  0.46131370  0.47215110    -0.10800
C197        C  0.17071347  0.46836655  0.00538087    -0.01700
C198        C  0.14862933  0.47193663  0.02045679    -0.11900
C199        C  0.12450843  0.46956957  0.50249195    -0.10300
H200        H  0.14418124  0.45915775  0.43089673     0.07600
H201        H  0.18379565  0.45807336  0.45977870     0.11300
H202        H  0.14911757  0.47448830  0.04513525     0.11000
H203        H  0.11014022  0.47717314  0.01563145     0.07600
C204        C  0.30807698  0.45951985  0.17264051    -0.11500
C205        C  0.31574289  0.47402423  0.20123798     0.05600
C206        C  0.29987929  0.48762438  0.21213275    -0.10300
C207        C  0.27650720  0.48643432  0.19506790    -0.11900
C208        C  0.26879189  0.47208796  0.16641208    -0.01700
C209        C  0.28499937  0.45890135  0.15514057    -0.10800
C210        C  0.33960560  0.47459163  0.22048005     0.05600
H211        H  0.30419441  0.99848638  0.23457231     0.07600
H212        H  0.26391121  0.99681232  0.20402394     0.11000
H213        H  0.27939820  0.44758297  0.13317109     0.11300
H214        H  0.32004479  0.44887392  0.16383351     0.07600
C215        C  0.33892405  0.44797596  0.22858618    -0.11500
C216        C  0.35890244  0.44825545  0.25047340    -0.10800
C217        C  0.38009483  0.47523471  0.26437483    -0.01700
C218        C  0.38178545  0.50201367  0.25476429    -0.11900
C219        C  0.36163688  0.50165000  0.23322955    -0.10300
H220        H  0.32203866  0.42682908  0.21908864     0.07600
H221        H  0.35719053  0.42727754  0.25711052     0.11300
H222        H  0.39800198  0.52324142  0.26467922     0.11000
H223        H  0.36273461  0.52247468  0.22707784     0.07600
C224        C  0.12438485  0.46705951  0.16937499    -0.11500
C225        C  0.12756812  0.47232036  0.20118222     0.05600
C226        C  0.15425450  0.47770407  0.21533518    -0.10300
C227        C  0.17679387  0.47706036  0.19844764    -0.11900
C228        C  0.17355051  0.47140257  0.16676720    -0.01700
C229        C  0.14717916  0.46666238  0.15232116    -0.10800
C230        C  0.10330952  0.47185213  0.22001816     0.05600
H231        H  0.16018738  0.98739407  0.23840999     0.07600
H232        H  0.19861922  0.98489489  0.20906918     0.11000
H233        H  0.14396458  0.46224873  0.12793023     0.11300
H234        H  0.10406377  0.46264098  0.15777503     0.07600
C235        C  0.08573336  0.48372583  0.20907699    -0.11500
C236        C  0.06434794  0.48478043  0.22807184    -0.10800
C237        C  0.06055948  0.47436887  0.25837306    -0.01700
C238        C  0.07753450  0.46183600  0.26890678    -0.11900
C239        C  0.09830339  0.46024457  0.24990852    -0.10300
H240        H  0.08910847  0.49298902  0.18622017     0.07600
H241        H  0.05152150  0.49457804  0.21946082     0.11300
H242        H  0.07470481  0.45313393  0.29199826     0.11000
H243        H  0.11063687  0.45003862  0.25881755     0.07600
C244        C  0.38567369  0.38862417  0.46316764    -0.11500
C245        C  0.36809233  0.35883835  0.45321983     0.05600
C246        C  0.37388048  0.35076049  0.42437198    -0.10300
C247        C  0.39551379  0.37207734  0.40521118    -0.11900
C248        C  0.41230941  0.40203064  0.41449235    -0.01700
C249        C  0.40773336  0.41009448  0.44393116    -0.10800
C250        C  0.34278258  0.33616852  0.47174261     0.05600
H251        H  0.36129073  0.32788531  0.41637498     0.07600
H252        H  0.39890119  0.36512407  0.38283925     0.11000
H253        H  0.42037335  0.43308956  0.45155434     0.11300
H254        H  0.38164900  0.39548541  0.48528504     0.07600
C255        C  0.34548245  0.33323700  0.50344134    -0.11500
C256        C  0.32180444  0.31042889  0.51997857    -0.10800
C257        C  0.29577413  0.28839918  0.00561647    -0.01700
C258        C  0.29219577  0.29375668  0.47357533    -0.11900
C259        C  0.31570312  0.31644658  0.45718216    -0.10300
H260        H  0.36612769  0.34804792  0.51524071     0.07600
H261        H  0.32600199  0.30577048  0.04445901     0.11300
H262        H  0.27181752  0.27890389  0.46139010     0.11000
H263        H  0.31269166  0.31852177  0.43291303     0.07600
C264        C  0.15804797  0.14531632  0.49739319    -0.11500
C265        C  0.15146793  0.15184605  0.46812676     0.05600
C266        C  0.16800449  0.18117150  0.45700343    -0.10300
C267        C  0.19120264  0.20337164  0.47437315    -0.17900
C268        C  0.19804171  0.19689559  0.50353962    -0.01700
C269        C  0.18134101  0.16687446  0.01617600    -0.10800
C270        C  0.12840990  0.12813471  0.44839425     0.05600
H271        H  0.16352290  0.18672243  0.43441666     0.07600
H272        H  0.20386485  0.22564432  0.46490600     0.11000
H273        H  0.18682560  0.16103147  0.03811178     0.11300
H274        H  0.14618836  0.12194324  0.00738396     0.07600
C275        C  0.12894895  0.10165718  0.44262237    -0.11500
C276        C  0.10960057  0.08102320  0.42093570    -0.10800
C277        C  0.08906719  0.08631155  0.40488197    -0.01700
C278        C  0.08755309  0.11210534  0.41196689    -0.11900
C279        C  0.10716195  0.13287664  0.43328443    -0.10300
H280        H  0.14521555  0.09755396  0.45391951     0.07600
H281        H  0.11117824  0.06126857  0.41627055     0.11300
H282        H  0.07186446  0.11680116  0.40028924     0.11000
H283        H  0.10613123  0.15299234  0.43757507     0.07600
C284        C  0.34246000  0.33461648  0.16925703    -0.11500
C285        C  0.34438259  0.33166801  0.20109817     0.05600
C286        C  0.32340817  0.30491380  0.21527796    -0.10300
C287        C  0.30040758  0.28215263  0.19838902    -0.11900
C288        C  0.29789271  0.28532153  0.16673099    -0.01700
C289        C  0.31944545  0.31162078  0.15220913    -0.10800
C290        C  0.36731858  0.35649825  0.22001723     0.05600
H291        H  0.32468187  0.30155836  0.23961160     0.07600
H292        H  0.28448970  0.26206318  0.21027882     0.11000
H293        H  0.31813904  0.31474228  0.12782754     0.11300
H294        H  0.35818975  0.35500256  0.15769080     0.07600
C295        C  0.39693147  0.37430015  0.20979879    -0.11500
C296        C  0.41846888  0.39658605  0.22882841    -0.10800
C297        C  0.41070799  0.40110683  0.25839754    -0.01700
C298        C  0.38103095  0.38381557  0.26818628    -0.11900
C299        C  0.35958539  0.36204938  0.24916609    -0.10300
H300        H  0.40360359  0.37046302  0.18750320     0.07600
H301        H  0.44127623  0.40958788  0.22086000     0.11300
H302        H  0.37433497  0.38713432  0.29071477     0.11000
H303        H  0.33685318  0.34941707  0.25742328     0.07600
C304        C  0.10277671  0.12281835  0.22665247    -0.11500
C305        C  0.13023919  0.12425232  0.22133786     0.05600
C306        C  0.13656315  0.10411078  0.23649154    -0.10300
C307        C  0.11654600  0.08387647  0.25771678    -0.11900
C308        C  0.08984500  0.08355815  0.26461470    -0.01700
C309        C  0.08278028  0.10273263  0.24826843    -0.10800
C310        C  0.15370912  0.14839205  0.20256177     0.05600
H311        H  0.15749328  0.10463969  0.23249602     0.07600
H312        H  0.12260235  0.06926970  0.26959425     0.11000
H313        H  0.06220541  0.10277334  0.25276109     0.11300
H314        H  0.09745604  0.13817545  0.21520830     0.07600
C315        C  0.14837147  0.15370997  0.17225826    -0.11500
C316        C  0.17154807  0.17601903  0.15472988    -0.10800
C317        C  0.20015211  0.19370045  0.16753976    -0.01700
C318        C  0.20503125  0.18863319  0.19809369    -0.11900
C319        C  0.18217386  0.16616923  0.21527665    -0.10300
H320        H  0.12652405  0.14025777  0.16204065     0.07600
H321        H  0.16706143  0.17956597  0.13131580     0.11300
H322        H  0.22672556  0.20179533  0.20871653     0.11000
H323        H  0.18671364  0.16270606  0.23871364     0.07600
C324        C  0.22568322  0.21652350  0.64865667     0.79500
N325        N  0.24951660  0.23835001  0.66389215    -0.78800
C326        C  0.27265418  0.26085614  0.64865830     0.82000
N327        N  0.27193495  0.26134815  0.61755579    -0.78700
C328        C  0.24835012  0.23951461  0.60188639     0.82100
N329        N  0.22513826  0.21720030  0.61750250    -0.80400
C330        C  0.22348108  0.22034752  0.52120145     0.79500
N331        N  0.22440024  0.21886138  0.55226239    -0.78800
C332        C  0.24784600  0.24050894  0.56823489     0.82000
N333        N  0.27066468  0.26350874  0.55298547    -0.78700
C334        C  0.27005814  0.26522015  0.52194066     0.82100
N335        N  0.24629633  0.24362079  0.50629663    -0.80400
C336        C  0.24510071  0.47305855  0.64759127     0.79500
N337        N  0.24360777  0.47054995  0.61653142    -0.78800
C338        C  0.22014052  0.46936835  0.60111823     0.82000
N339        N  0.19799075  0.47039117  0.61693857    -0.78700
C340        C  0.19927945  0.47287371  0.64799152     0.82100
N341        N  0.22298830  0.47436256  0.66301517    -0.80400
C342        C  0.24295336  0.47162001  0.52019414     0.79500
N343        N  0.24300142  0.47087660  0.55134358    -0.78800
C344        C  0.21937521  0.46851003  0.56742203     0.82000
N345        N  0.19554703  0.46668186  0.55219432    -0.78700
C346        C  0.19510275  0.46699027  0.52104856     0.82100
N347        N  0.21897558  0.46967111  0.50532983    -0.80400
C348        C  0.48980060  0.23941084  0.64927310     0.79500
N349        N  0.49183686  0.24087335  0.61815845    -0.78800
C350        C  0.49233669  0.21854479  0.60199759     0.82000
N351        N  0.49107173  0.19491207  0.61706933    -0.78700
C352        C  0.48932112  0.19343498  0.64811781     0.82100
N353        N  0.48859689  0.21568992  0.66391030    -0.80400
C354        C  0.49773608  0.24418974  0.52173327     0.79500
N355        N  0.50015564  0.22257046  0.50646873    -0.78800
C356        C  0.49923114  0.19927969  0.52183779     0.82000
N357        N  0.49639635  0.19804893  0.55282283    -0.78700
C358        C  0.49455071  0.21986034  0.56839765     0.82100
N359        N  0.49485347  0.24273702  0.55275082    -0.80400
O360        O  0.41824753  0.00059492  0.80085217    -0.88900
C361        C  0.07112657  0.06688618  0.88027016     1.11200
O362        O  0.45419903  0.47703425  0.83547196    -1.36700
O363        O  0.05039490  0.06929366  0.79942341    -0.90400
O364        O  0.39394862  0.45032460  0.80091106    -0.91000
O365        O  0.45515749  0.44543057  0.77131257    -0.79800
O366        O  0.48388914  0.03498247  0.80568020    -1.01900
C367        C  0.04195927  0.47959255  0.77968678     1.21200
O368        O  0.48654483  0.44718949  0.83596685    -1.36800
Mn369      Mn  0.48572160  0.47824623  0.86886215     1.82100
O370        O  0.01865181  0.47910130  0.77088591    -0.78900
O371        O  0.07708559  0.04615508  0.80190032    -0.88300
C372        C  0.04157870  0.48088523  0.89215406     1.12300
C373        C  0.07133751  0.06518259  0.78997532     1.07000
O374        O  0.45509778  0.44749833  0.90070103    -0.79900
O375        O  0.01740271  0.01013858  0.83562047    -1.33600
O376        O  0.42811770  0.41886563  0.86512851    -0.99100
C377        C  0.48766631  0.39200734  0.79173044     1.05700
Mn378      Mn  0.06011123  0.01388281  0.83646156     1.48600
O379        O  0.46280096  0.38676876  0.80291096    -0.88300
Mn380      Mn  0.41241735  0.43660554  0.83594700     1.49600
O381        O  0.41871150  0.00165555  0.86914563    -0.92100
C382        C  0.48361828  0.03013903  0.77831219     1.18900
C383        C  0.39833275  0.47618965  0.88011200     1.11000
Mn384      Mn  0.48572308  0.47749379  0.80224012     1.81000
O385        O  0.04655167  0.48128712  0.86479224    -0.97300
Mn386      Mn  0.45096607  0.01644708  0.83480533     1.49300
C387        C  0.39828417  0.47515931  0.79040761     1.07500
Mn388      Mn  0.02885606  0.44743917  0.83625754     1.49900
C389        C  0.48888995  0.39352177  0.88131453     1.10400
O390        O  0.42795864  0.41826149  0.80761995    -1.03100
O391        O  0.07641756  0.04665341  0.87089423    -0.92800
C392        C  0.43207054  0.42240641  0.78011614     1.21700
O393        O  0.04648932  0.48055412  0.80719523    -1.03500
O394        O  0.05111874  0.07120564  0.86845507    -0.90900
O395        O  0.01508654  0.41555426  0.87078232    -0.90500
O396        O  0.39394290  0.45117469  0.87004841    -0.90500
Mn397      Mn  0.01841996  0.05172960  0.83440773     1.47900
O398        O  0.01774563  0.47959895  0.90022941    -0.79000
C399        C  0.43264784  0.42356662  0.89253231     1.14700
O400        O  0.48521728  0.00773429  0.77018519    -0.77700
O401        O  0.48568426  0.00971863  0.89961471    -0.77300
Mn402      Mn  0.44745312  0.40445737  0.83674815     1.51100
O403        O  0.01505331  0.41440172  0.80242647    -0.89700
O404        O  0.48465061  0.03621018  0.86321136    -0.97200
O405        O  0.46340317  0.38801263  0.87160731    -0.92200
C406        C  0.48533107  0.03258672  0.89073035     1.12500
C407        C  0.48747502  0.12339262  0.00062997    -0.11500
C408        C  0.49692513  0.12775920  0.96991887     0.05600
C409        C  0.00902302  0.15694783  0.95672503    -0.10300
C410        C  0.00983502  0.18023887  0.97370091    -0.11900
C411        C  0.49988687  0.17486018  0.50475331    -0.01700
C412        C  0.48900821  0.14700759  0.01786451    -0.10800
C413        C  0.49296131  0.10235212  0.95050094     0.05600
H414        H  0.01649246  0.16110475  0.93312589     0.07600
H415        H  0.01769524  0.20164228  0.96267099     0.11000
H416        H  0.47820228  0.14158454  0.54030009     0.11300
H417        H  0.47792355  0.10150138  0.01100356     0.07600
C418        C  0.49823503  0.07994056  0.96200088    -0.11500
C419        C  0.49504959  0.05661155  0.94295267    -0.10800
C420        C  0.48660926  0.05540612  0.91213126    -0.01700
C421        C  0.48068321  0.07741103  0.90098445    -0.11900
C422        C  0.48370447  0.10046597  0.91991143    -0.10300
H423        H  0.50549602  0.08084225  0.98545810     0.07600
H424        H  0.49989275  0.04000588  0.95207653     0.11300
H425        H  0.97281031  0.07621307  0.87820895     0.11000
H426        H  0.97803790  0.11636932  0.91114611     0.07600
C427        C  0.51566238  0.30339450  0.96089034    -0.11500
C428        C  0.49705182  0.31472354  0.96954408     0.05600
C429        C  0.47989885  0.30394686  0.99633693    -0.10300
C430        C  0.47776794  0.27874777  0.51264418    -0.11900
C431        C  0.49912547  0.27009576  0.00484685    -0.01700
C432        C  0.51642193  0.28104491  0.97817781    -0.10800
C433        C  0.49473620  0.33673442  0.94973924     0.05600
H434        H  0.46064862  0.30784168  0.50146508     0.07600
H435        H  0.46310560  0.26932242  0.53219903     0.11000
H436        H  0.53045309  0.27220842  0.97062967     0.11300
H437        H  0.52891474  0.31118710  0.94019166     0.07600
C438        C  0.52061111  0.36181132  0.93880825    -0.11500
C439        C  0.51859177  0.38090419  0.91755246    -0.10800
C440        C  0.49062086  0.37513238  0.90645828    -0.01700
C441        C  0.46465716  0.35072778  0.91846749    -0.11900
C442        C  0.46671600  0.33175872  0.93998202    -0.10300
H443        H  0.04292868  0.36766149  0.94813064     0.07600
H444        H  0.04010798  0.40149131  0.91104165     0.11300
H445        H  0.44277982  0.34574747  0.91058490     0.11000
H446        H  0.44644607  0.31247900  0.94804133     0.07600
C447        C  0.47948056  0.11712891  0.66687244    -0.11500
C448        C  0.48462904  0.11967309  0.69869442     0.05600
C449        C  0.99212683  0.14838812  0.71415114    -0.10300
C450        C  0.99265491  0.17153382  0.69732187    -0.11900
C451        C  0.48835733  0.16810160  0.66496440    -0.01700
C452        C  0.48139913  0.14118496  0.65011963    -0.10800
C453        C  0.48166221  0.09426289  0.71730732     0.05600
H454        H  0.99797140  0.15213436  0.73823104     0.07600
H455        H  0.99857219  0.19224902  0.70905693     0.11000
H456        H  0.47685798  0.13851164  0.62572770     0.11300
H457        H  0.47333455  0.09638423  0.65509291     0.07600
C458        C  0.46920333  0.08952480  0.74678513    -0.11500
C459        C  0.46928902  0.06814735  0.76605300    -0.10800
C460        C  0.48133906  0.05050705  0.75620908    -0.01700
C461        C  0.99217642  0.05477403  0.72660484    -0.11900
C462        C  0.99230844  0.07680932  0.70768830    -0.10300
H463        H  0.45981474  0.10278932  0.75524438     0.07600
H464        H  0.46022339  0.06568034  0.78893597     0.11300
H465        H  0.00057588  0.04078548  0.71774815     0.11000
H466        H  0.00095681  0.07942675  0.68462105     0.07600
C467        C  0.01866864  0.35395249  0.74021533    -0.11500
C468        C  0.48710682  0.33064070  0.72428243     0.05600
C469        C  0.46104003  0.32418571  0.74034457    -0.10300
C470        C  0.46107394  0.34457222  0.76140439    -0.11900
C471        C  0.48730533  0.37182237  0.76724334    -0.01700
C472        C  0.01810661  0.37383085  0.76155882    -0.10800
C473        C  0.48751605  0.30756158  0.70430794     0.05600
H474        H  0.44066190  0.30309972  0.73688125     0.07600
H475        H  0.44068097  0.33853355  0.77378228     0.11000
H476        H  0.03815277  0.38794742  0.77458935     0.11300
H477        H  0.03917857  0.35340788  0.73712916     0.07600
C478        C  0.97904410  0.30504870  0.67413820    -0.11500
C479        C  0.97807235  0.28219330  0.65591732    -0.10800
C480        C  0.48858807  0.26298523  0.66754786    -0.01700
C481        C  0.47610321  0.25626926  0.69708276    -0.11900
C482        C  0.47540794  0.27820440  0.71513102    -0.10300
H483        H  0.96902103  0.31770027  0.66560273     0.07600
H484        H  0.96705194  0.27741820  0.63383163     0.11300
H485        H  0.46674460  0.23391911  0.70632488     0.11000
H486        H  0.46585379  0.27232529  0.73788328     0.07600
C487        C  0.29677910  0.48820583  0.95600485    -0.11500
C488        C  0.31464515  0.47694826  0.96720457     0.05600
C489        C  0.31052174  0.96651576  0.99699728    -0.10300
C490        C  0.28743384  0.96500487  0.01510486    -0.11900
C491        C  0.26858289  0.47492058  0.00362250    -0.01700
C492        C  0.27353030  0.48624959  0.47235106    -0.10800
C493        C  0.33787611  0.47711262  0.94728735     0.05600
H494        H  0.32452827  0.95827550  0.00612406     0.07600
H495        H  0.28392820  0.95540955  0.03783125     0.11000
H496        H  0.25913667  0.49368149  0.46247208     0.11300
H497        H  0.30010273  0.49729051  0.93304029     0.07600
C498        C  0.33865835  0.45072566  0.94175630    -0.11500
C499        C  0.35872269  0.45040047  0.92040086    -0.10800
C500        C  0.37860396  0.47658747  0.90454251    -0.01700
C501        C  0.37850805  0.50320035  0.91114824    -0.11900
C502        C  0.35821375  0.50338374  0.93208980    -0.10300
H503        H  0.32302279  0.43015961  0.95312431     0.07600
H504        H  0.35833990  0.42957909  0.91595949     0.11300
H505        H  0.39352844  0.52378836  0.89944284     0.11000
H506        H  0.35810726  0.52402044  0.93614920     0.07600
C507        C  0.11242408  0.99028661  0.92646636    -0.11500
C508        C  0.10390694  0.47539163  0.95286606     0.05600
C509        C  0.07369596  0.46237726  0.96133073    -0.10300
C510        C  0.05334451  0.46513954  0.94226409    -0.11900
C511        C  0.06293760  0.48073313  0.91442723    -0.01700
C512        C  0.09244999  0.99328736  0.90747835    -0.10800
C513        C  0.12559007  0.47118018  0.97145878     0.05600
H514        H  0.06565922  0.44927102  0.98209262     0.07600
H515        H  0.02998668  0.45407161  0.94859362     0.11000
H516        H  0.10066722  0.00596122  0.88645949     0.11300
H517        H  0.13569013  0.00112867  0.91983379     0.07600
C518        C  0.14684392  0.46620241  0.95667016    -0.11500
C519        C  0.16914865  0.46493374  0.97335770    -0.10800
C520        C  0.16942268  0.46534410  0.50411150    -0.01700
C521        C  0.14726701  0.46877328  0.51922736    -0.11900
C522        C  0.12624792  0.47334272  0.00362031    -0.10300
H523        H  0.14644359  0.46361589  0.93199563     0.07600
H524        H  0.18541515  0.46160013  0.96100153     0.11300
H525        H  0.14802558  0.47177721  0.54385410     0.11000
H526        H  0.10842080  0.47341643  0.51452348     0.07600
C527        C  0.30882928  0.46098301  0.67210612    -0.11500
C528        C  0.31699843  0.47626758  0.70027984     0.05600
C529        C  0.30214992  0.49123159  0.71025186    -0.10300
C530        C  0.27906289  0.49033192  0.69288830    -0.11900
C531        C  0.27063092  0.47491495  0.66482928    -0.01700
C532        C  0.28605289  0.46064192  0.65429271    -0.10800
C533        C  0.34009941  0.47599964  0.72016571     0.05600
H534        H  0.30694634  0.00240399  0.73198722     0.07600
H535        H  0.26656853  0.00043507  0.70129608     0.11000
H536        H  0.27992335  0.44852948  0.63277343     0.11300
H537        H  0.32004934  0.44934527  0.66395346     0.07600
C538        C  0.33819950  0.44892998  0.72882764    -0.11500
C539        C  0.35754598  0.44854379  0.75111575    -0.10800
C540        C  0.37930893  0.47529195  0.76490034    -0.01700
C541        C  0.38211165  0.50245637  0.75486664    -0.11900
C542        C  0.36262829  0.50276920  0.73291582    -0.10300
H543        H  0.32088978  0.42798269  0.71938054     0.07600
H544        H  0.35495719  0.42727700  0.75808660     0.11300
H545        H  0.39880136  0.52353724  0.76465253     0.11000
H546        H  0.36469029  0.52393268  0.72637832     0.07600
C547        C  0.12582550  0.46881071  0.66901324    -0.11500
C548        C  0.13009628  0.47609494  0.70041144     0.05600
C549        C  0.15761446  0.48322587  0.71384526    -0.10300
C550        C  0.17984790  0.48217554  0.69676982    -0.11900
C551        C  0.17548836  0.47440759  0.66556133    -0.01700
C552        C  0.14833156  0.46805471  0.65173830    -0.10800
C553        C  0.10604867  0.47568748  0.71963610     0.05600
H554        H  0.15980232  0.98388484  0.73906590     0.07600
H555        H  0.19786686  0.98125282  0.70934461     0.11000
H556        H  0.14425654  0.46200334  0.62772069     0.11300
H557        H  0.10486618  0.46300990  0.65795400     0.07600
C558        C  0.08681443  0.48541860  0.70824836    -0.11500
C559        C  0.06536677  0.48622203  0.72738711    -0.10800
C560        C  0.06309529  0.47765218  0.75826259    -0.01700
C561        C  0.08179322  0.46729022  0.76929391    -0.11900
C562        C  0.10270200  0.46602875  0.75022249    -0.10300
H563        H  0.08884378  0.49313053  0.68484298     0.07600
H564        H  0.05117077  0.49426832  0.71832658     0.11300
H565        H  0.08019369  0.45998524  0.79283639     0.11000
H566        H  0.11632787  0.45744894  0.75958414     0.07600
C567        C  0.38644910  0.38660790  0.96378198    -0.11500
C568        C  0.36884241  0.35693553  0.95351117     0.05600
C569        C  0.37425416  0.34931297  0.92425638    -0.10300
C570        C  0.39547045  0.37098956  0.90502796    -0.11900
C571        C  0.41220272  0.40086587  0.91462464    -0.01700
C572        C  0.40807512  0.40843847  0.94447135    -0.10800
C573        C  0.34370255  0.33403416  0.97205490     0.05600
H574        H  0.36163149  0.32653699  0.91598033     0.07600
H575        H  0.39855108  0.36437880  0.88235005     0.11000
H576        H  0.42071272  0.43133398  0.95238947     0.11300
H577        H  0.38271948  0.39312297  0.98622276     0.07600
C578        C  0.34667790  0.33072895  0.00362745    -0.11500
C579        C  0.32293720  0.30808900  0.02026026    -0.10800
C580        C  0.29498076  0.29020280  0.50510651    -0.01700
C581        C  0.29279855  0.29218536  0.97417911    -0.11900
C582        C  0.31637137  0.31471032  0.95768845    -0.10300
H583        H  0.36752646  0.34520719  0.01526889     0.07600
H584        H  0.32470326  0.30834777  0.54426706     0.11300
H585        H  0.27216536  0.27773223  0.96218035     0.11000
H586        H  0.31315726  0.31706840  0.93353148     0.07600
C587        C  0.15820628  0.14455905  0.99865938    -0.11500
C588        C  0.15081350  0.15139966  0.96996568     0.05600
C589        C  0.16675284  0.18088452  0.95919334    -0.10300
C590        C  0.19028263  0.20297394  0.97630548    -0.17900
C591        C  0.19793819  0.19618308  0.00487863    -0.01700
C592        C  0.18090930  0.16774100  0.51511289    -0.10800
C593        C  0.12792364  0.12776073  0.95015646     0.05600
H594        H  0.16161424  0.18661505  0.93701088     0.07600
H595        H  0.20256014  0.22540119  0.96713229     0.11000
H596        H  0.18570405  0.16208803  0.53749767     0.11300
H597        H  0.14553228  0.12287490  0.50647960     0.07600
C598        C  0.12999717  0.10244768  0.94260595    -0.11500
C599        C  0.11104923  0.08220708  0.92048201    -0.10800
C600        C  0.08944094  0.08675073  0.90570123    -0.01700
C601        C  0.08631619  0.11123541  0.91466072    -0.11900
C602        C  0.10553329  0.13165436  0.93646952    -0.10300
H603        H  0.14719119  0.09907119  0.95279979     0.07600
H604        H  0.11385894  0.06343284  0.91440919     0.11300
H605        H  0.06964810  0.11520709  0.90411506     0.11000
H606        H  0.10337402  0.15089581  0.94218008     0.07600
C607        C  0.34140860  0.33477043  0.66925424    -0.11500
C608        C  0.34353035  0.33146676  0.70100086     0.05600
C609        C  0.32310621  0.30427793  0.71485530    -0.10300
C610        C  0.30051247  0.28135537  0.69771259    -0.11900
C611        C  0.29784265  0.28483609  0.66613550    -0.01700
C612        C  0.31880664  0.31164136  0.65196294    -0.10800
C613        C  0.36629859  0.35627511  0.72007823     0.05600
H614        H  0.32454331  0.30067184  0.73909970     0.07600
H615        H  0.28502249  0.26089579  0.70934005     0.11000
H616        H  0.31733980  0.31503720  0.62767261     0.11300
H617        H  0.35669170  0.35550106  0.65794255     0.07600
C618        C  0.39573014  0.37465438  0.70962969    -0.11500
C619        C  0.41723259  0.39688039  0.72871333    -0.10800
C620        C  0.40964451  0.40079682  0.75857973    -0.01700
C621        C  0.38011094  0.38295627  0.76862730    -0.11900
C622        C  0.35868021  0.36119702  0.74956009    -0.10300
H623        H  0.40232285  0.37130311  0.68708357     0.07600
H624        H  0.43990876  0.41031875  0.72052306     0.11300
H625        H  0.37352862  0.38581079  0.79139821     0.11000
H626        H  0.33607278  0.34807870  0.75803034     0.07600
C627        C  0.10350100  0.12245826  0.72574351    -0.11500
C628        C  0.13085366  0.12360608  0.72053718     0.05600
C629        C  0.13708124  0.10361060  0.73612636    -0.10300
C630        C  0.11713547  0.08386908  0.75769447    -0.11900
C631        C  0.09056903  0.08386532  0.76448928    -0.01700
C632        C  0.08354752  0.10283360  0.74769497    -0.10800
C633        C  0.15439883  0.14741843  0.70153431     0.05600
H634        H  0.15791099  0.10390421  0.73222481     0.07600
H635        H  0.12314978  0.06938482  0.76988736     0.11000
H636        H  0.06305543  0.10307220  0.75208222     0.11300
H637        H  0.09825579  0.13771281  0.71396067     0.07600
C638        C  0.14903180  0.15267154  0.67121692    -0.11500
C639        C  0.17222735  0.17485097  0.65359804    -0.10800
C640        C  0.20087941  0.19244825  0.66633022    -0.01700
C641        C  0.20583603  0.18733074  0.69683534    -0.11900
C642        C  0.18295613  0.16502599  0.71411370    -0.10300
H643        H  0.12712228  0.13933215  0.66109230     0.07600
H644        H  0.16768997  0.17843895  0.63021758     0.11300
H645        H  0.22757285  0.20042460  0.70739569     0.11000
H646        H  0.18753450  0.16161759  0.73755516     0.07600
C647        C  0.22535045  0.71696791  0.14958948     0.79500
N648        N  0.24983294  0.73805695  0.16469690    -0.78800
C649        C  0.27301988  0.76041526  0.14935181     0.82000
N650        N  0.27170149  0.76150547  0.11833832    -0.78700
C651        C  0.24752890  0.74039019  0.10279290     0.82100
N652        N  0.22426324  0.71820837  0.11848428    -0.80400
C653        C  0.22236857  0.72201115  0.02208167     0.79500
N654        N  0.22331832  0.72026441  0.05311701    -0.78800
C655        C  0.24673739  0.74183179  0.06917836     0.82000
N656        N  0.26954894  0.76493651  0.05402402    -0.78700
C657        C  0.26889443  0.76691393  0.02300895     0.82100
N658        N  0.24511494  0.74543450  0.00726905    -0.80400
C659        C  0.24307946  0.97011406  0.14890358     0.79500
N660        N  0.24190729  0.96784461  0.11781015    -0.78800
C661        C  0.21871549  0.96705094  0.10218835     0.82000
N662        N  0.19660097  0.96831779  0.11780354    -0.78700
C663        C  0.19761589  0.97062002  0.14884995     0.82100
N664        N  0.22098698  0.97164094  0.16409196    -0.80400
C665        C  0.24240636  0.97102725  0.02131978     0.79500
N666        N  0.24213136  0.96951726  0.05245076    -0.78800
C667        C  0.21828473  0.96666596  0.06849677     0.82000
N668        N  0.19459039  0.96511517  0.05327082    -0.78700
C669        C  0.19446539  0.96617611  0.02216661     0.82100
N670        N  0.21854401  0.96934924  0.00646496    -0.80400
C671        C  0.48671683  0.73837239  0.14955196     0.79500
N672        N  0.48853779  0.73960429  0.11842827    -0.78800
C673        C  0.48807506  0.71677230  0.10231063     0.82000
N674        N  0.48599079  0.69278679  0.11745107    -0.78700
C675        C  0.48427066  0.69144975  0.14852653     0.82100
N676        N  0.48463182  0.71428652  0.16420987    -0.80400
C677        C  0.49649263  0.74392612  0.02233934     0.79500
N678        N  0.49969395  0.72270607  0.00721084    -0.78800
C679        C  0.49821347  0.69909222  0.02247085     0.82000
N680        N  0.49393103  0.69712787  0.05329849    -0.78700
C681        C  0.49117710  0.71847840  0.06876959     0.82100
N682        N  0.49215340  0.74170956  0.05317114    -0.80400
O683        O  0.41908733  0.50069780  0.30032679    -0.88900
C684        C  0.07109471  0.56538638  0.37926319     1.11200
O685        O  0.45500912  0.97719858  0.33516906    -1.36700
O686        O  0.04990188  0.56769501  0.29889289    -0.90400
O687        O  0.39455564  0.95031907  0.30110566    -0.91000
O688        O  0.45575324  0.94532925  0.27105013    -0.79800
O689        O  0.48477463  0.53501787  0.30548664    -1.01900
C690        C  0.04087786  0.97833638  0.27989287     1.21200
O691        O  0.48740966  0.94740256  0.33584219    -1.36800
Mn692      Mn  0.48663075  0.97855938  0.36857560     1.82100
O693        O  0.01777291  0.97821665  0.27104738    -0.78900
O694        O  0.07606270  0.54397644  0.30090323    -0.88300
C695        C  0.04010705  0.97925320  0.39231348     1.12300
C696        C  0.07061425  0.56333484  0.28925149     1.07000
O697        O  0.45616633  0.94788461  0.40051066    -0.79900
O698        O  0.01635672  0.50870938  0.33511708    -1.33600
O699        O  0.42907373  0.91908402  0.36507115    -0.99100
C700        C  0.48867985  0.89242801  0.29173201     1.05700
Mn701      Mn  0.05880449  0.51178254  0.33568740     1.48600
O702        O  0.46368550  0.88735081  0.30238407    -0.88300
Mn703      Mn  0.41328309  0.93683122  0.33598506     1.49600
O704        O  0.41950670  0.50205605  0.36871551    -0.92100
C705        C  0.48435124  0.53024891  0.27812169     1.18900
C706        C  0.39924038  0.97673058  0.37976476     1.11000
Mn707      Mn  0.48644943  0.97752125  0.30192699     1.81000
O708        O  0.04500034  0.97960466  0.36494709    -0.97300
Mn709      Mn  0.45180336  0.51670633  0.33445195     1.49300
C710        C  0.39876298  0.97500190  0.29031979     1.07500
Mn711      Mn  0.02722071  0.94580317  0.33633211     1.49900
C712        C  0.48933682  0.89359664  0.38131647     1.10400
O713        O  0.42882158  0.91855448  0.30759883    -1.03100
O714        O  0.07599160  0.54486876  0.36991494    -0.92800
C715        C  0.43278422  0.92229570  0.28006224     1.21700
O716        O  0.04532766  0.97906853  0.30740587    -1.03500
O717        O  0.05094985  0.56971128  0.36775874    -0.90900
O718        O  0.01300544  0.91367845  0.37097300    -0.90500
O719        O  0.39501707  0.95162496  0.37014827    -0.90500
Mn720      Mn  0.01798684  0.55055135  0.33380588     1.47900
O721        O  0.01654832  0.97857670  0.40041590    -0.79000
C722        C  0.43378115  0.92386013  0.39244784     1.14700
O723        O  0.48593826  0.50784772  0.26989645    -0.77700
O724        O  0.48635334  0.51009070  0.39941216    -0.77300
Mn725      Mn  0.44829045  0.90472251  0.33646767     1.51100
O726        O  0.01324583  0.91280161  0.30216208    -0.89700
O727        O  0.48554933  0.53655951  0.36287488    -0.97200
O728        O  0.46408105  0.88804423  0.37095040    -0.92200
C729        C  0.48615659  0.53299947  0.39041487     1.12500
C730        C  0.48305264  0.62123777  0.49997041    -0.11500
C731        C  0.49567978  0.62680367  0.47049002     0.05600
C732        C  0.00813539  0.65477211  0.45935439    -0.10300
C733        C  0.00884789  0.67799267  0.47635776    -0.11900
C734        C  0.50006997  0.67522857  0.00537026    -0.01700
C735        C  0.48361757  0.64438075  0.51722258    -0.10800
C736        C  0.49264014  0.60200391  0.45065668     0.05600
H737        H  0.01925948  0.65992519  0.43733282     0.07600
H738        H  0.02020365  0.70035405  0.46692941     0.11000
H739        H  0.48433027  0.64332824  0.04275408     0.11300
H740        H  0.47175363  0.59882816  0.50924465     0.07600
C741        C  0.49466723  0.57779105  0.46268237    -0.11500
C742        C  0.49205370  0.55487162  0.44336329    -0.10800
C743        C  0.48740991  0.55585096  0.41174861    -0.01700
C744        C  0.48486321  0.57976459  0.39996932    -0.11900
C745        C  0.48731546  0.60241353  0.41914032    -0.10300
H746        H  0.49885521  0.57686652  0.48686141     0.07600
H747        H  0.49415369  0.53671445  0.45303629     0.11300
H748        H  0.98061153  0.58053643  0.37543083     0.11000
H749        H  0.98337374  0.61923305  0.40885812     0.07600
C750        C  0.51104477  0.79986133  0.45960482    -0.11500
C751        C  0.49415629  0.81284731  0.46906903     0.05600
C752        C  0.47794688  0.80337693  0.49652511    -0.10300
C753        C  0.47689262  0.77862499  0.01213928    -0.11900
C754        C  0.49488677  0.76758724  0.50437800    -0.01700
C755        C  0.51113896  0.77720022  0.47691366    -0.10800
C756        C  0.49263293  0.83529772  0.44943439     0.05600
H757        H  0.45969776  0.80732146  0.99957965     0.07600
H758        H  0.46140982  0.76883922  0.03102269     0.11000
H759        H  0.52390873  0.76714611  0.46878687     0.11300
H760        H  0.52351098  0.80672064  0.43835944     0.07600
C761        C  0.51890501  0.86079827  0.43997776    -0.11500
C762        C  0.51772760  0.88045483  0.41882590    -0.10800
C763        C  0.49024086  0.87470884  0.40636627    -0.01700
C764        C  0.46383906  0.84972713  0.41684968    -0.11900
C765        C  0.46504472  0.83025728  0.43827849    -0.10300
H766        H  0.03909071  0.86430959  0.44876843     0.07600
H767        H  0.03735902  0.89900070  0.41191509     0.11300
H768        H  0.44229799  0.84469176  0.40783508     0.11000
H769        H  0.44453614  0.81059541  0.44521497     0.07600
C770        C  0.47669757  0.61606165  0.16753815    -0.11500
C771        C  0.48086397  0.61836268  0.19952479     0.05600
C772        C  0.99188870  0.64614651  0.21292687    -0.10300
C773        C  0.99323698  0.66979475  0.19640203    -0.11900
C774        C  0.48301399  0.66607091  0.16563316    -0.01700
C775        C  0.47783168  0.63973803  0.15072435    -0.10800
C776        C  0.47945333  0.59350214  0.21801787     0.05600
H777        H  0.99699830  0.64927673  0.23719466     0.07600
H778        H  0.99905320  0.69029747  0.20852699     0.11000
H779        H  0.47438408  0.63731414  0.12615571     0.11300
H780        H  0.47213418  0.59583506  0.15558998     0.07600
C781        C  0.46696383  0.58795086  0.24752612    -0.11500
C782        C  0.46820510  0.56698648  0.26649659    -0.10800
C783        C  0.48136481  0.55043938  0.25631874    -0.01700
C784        C  0.99203743  0.55316936  0.22582108    -0.11900
C785        C  0.99218434  0.57496006  0.20651436    -0.10300
H786        H  0.45651348  0.60015027  0.25622414     0.07600
H787        H  0.45900794  0.56387920  0.28938604     0.11300
H788        H  0.00131014  0.53971142  0.21763458     0.11000
H789        H  0.00174519  0.57799836  0.18383185     0.07600
C790        C  0.01400660  0.85835393  0.22971499    -0.11500
C791        C  0.48869283  0.83214830  0.22363827     0.05600
C792        C  0.46203101  0.82656594  0.23769676    -0.10300
C793        C  0.46192478  0.84673097  0.25892016    -0.11900
C794        C  0.48863416  0.87269909  0.26697092    -0.01700
C795        C  0.01400146  0.87877977  0.25091487    -0.10800
C796        C  0.48894072  0.80887980  0.20421559     0.05600
H797        H  0.44135223  0.80621146  0.23267241     0.07600
H798        H  0.44100509  0.84143587  0.26974317     0.11000
H799        H  0.03418857  0.90008309  0.25403091     0.11300
H800        H  0.03427868  0.86419989  0.21719501     0.07600
C801        C  0.00149608  0.81414842  0.17617243    -0.11500
C802        C  0.00115786  0.79187110  0.15743647    -0.10800
C803        C  0.48736394  0.76288415  0.16789403    -0.01700
C804        C  0.47963706  0.75821265  0.19913262    -0.11900
C805        C  0.48023719  0.78086940  0.21698992    -0.10300
H806        H  0.01125724  0.83673104  0.16748937     0.07600
H807        H  0.01103942  0.79776227  0.13483169     0.11300
H808        H  0.47283939  0.73687758  0.20987976     0.11000
H809        H  0.47400066  0.77659066  0.24093394     0.07600
C810        C  0.29626595  0.98748846  0.45471822    -0.11500
C811        C  0.31509246  0.97754158  0.46633108     0.05600
C812        C  0.31118397  0.46700914  0.49643078    -0.10300
C813        C  0.28809395  0.46567463  0.51440946    -0.11900
C814        C  0.26810185  0.97400960  0.50240913    -0.01700
C815        C  0.27363185  0.98709065  0.97386391    -0.10800
C816        C  0.33850073  0.97791576  0.44648926     0.05600
H817        H  0.32552408  0.45933780  0.50593605     0.07600
H818        H  0.28490923  0.45676787  0.53743277     0.11000
H819        H  0.25950051  0.99501479  0.96435135     0.11300
H820        H  0.29915176  0.99602722  0.43154615     0.07600
C821        C  0.34001446  0.95180019  0.44182386    -0.11500
C822        C  0.36016813  0.95143270  0.42062361    -0.10800
C823        C  0.37946562  0.97733003  0.40404736    -0.01700
C824        C  0.37866544  0.00374019  0.40975402    -0.11900
C825        C  0.35823128  0.00394130  0.43053609    -0.10300
H826        H  0.32485387  0.93141396  0.45376303     0.07600
H827        H  0.36031811  0.93077894  0.41687681     0.11300
H828        H  0.39321171  0.02410164  0.39744858     0.11000
H829        H  0.35754981  0.02437035  0.43389293     0.07600
C830        C  0.11136517  0.48817624  0.42490505    -0.11500
C831        C  0.10189840  0.97186114  0.45228717     0.05600
C832        C  0.07186112  0.95970698  0.46114563    -0.10300
C833        C  0.05171152  0.96314464  0.44238040    -0.11900
C834        C  0.06132330  0.97857018  0.41445341    -0.01700
C835        C  0.09118960  0.49117410  0.40622268    -0.10800
C836        C  0.12343954  0.96724608  0.47073684     0.05600
H837        H  0.06377403  0.94677303  0.48200529     0.07600
H838        H  0.02846319  0.95271301  0.44900952     0.11000
H839        H  0.09921630  0.50389953  0.38521086     0.11300
H840        H  0.13458171  0.49907074  0.41807526     0.07600
C841        C  0.14454627  0.96208796  0.45584101    -0.11500
C842        C  0.16701275  0.96095043  0.47239422    -0.10800
C843        C  0.16901664  0.96507233  0.00530834    -0.01700
C844        C  0.14674541  0.96818611  0.02059993    -0.11900
C845        C  0.12430088  0.96949970  0.50289276    -0.10300
H846        H  0.14398638  0.95938679  0.43117631     0.07600
H847        H  0.18324191  0.95761538  0.45996144     0.11300
H848        H  0.14714939  0.97037340  0.04531922     0.11000
H849        H  0.10822552  0.97341350  0.01614709     0.07600
C850        C  0.30750541  0.95910958  0.17339046    -0.11500
C851        C  0.31491172  0.97362867  0.20198949     0.05600
C852        C  0.29906058  0.98737852  0.21248694    -0.10300
C853        C  0.27591362  0.98625589  0.19506588    -0.11900
C854        C  0.26837889  0.97179444  0.16645100    -0.01700
C855        C  0.28462904  0.95852145  0.15554791    -0.10800
C856        C  0.33854478  0.97411145  0.22157186     0.05600
H857        H  0.30520325  0.49868688  0.23424742     0.07600
H858        H  0.26451735  0.49690099  0.20428654     0.11000
H859        H  0.27919571  0.94713130  0.13362191     0.11300
H860        H  0.31950350  0.94839433  0.16485644     0.07600
C861        C  0.33791884  0.94748522  0.22954361    -0.11500
C862        C  0.35796898  0.94771597  0.25131952    -0.10800
C863        C  0.37918729  0.97466192  0.26523730    -0.01700
C864        C  0.38067465  0.00143546  0.25593246    -0.11900
C865        C  0.36045700  0.00111562  0.23452067    -0.10300
H866        H  0.32110201  0.92637333  0.21992149     0.07600
H867        H  0.35639110  0.92674447  0.25776275     0.11300
H868        H  0.39686675  0.02263918  0.26591450     0.11000
H869        H  0.36150688  0.02194998  0.22850945     0.07600
C870        C  0.12479269  0.96813747  0.16916983    -0.11500
C871        C  0.12881132  0.97489015  0.20067385     0.05600
C872        C  0.15598176  0.98132034  0.21440624    -0.10300
C873        C  0.17814575  0.98002926  0.19748387    -0.11900
C874        C  0.17398999  0.97261503  0.16618227    -0.01700
C875        C  0.14720284  0.96705123  0.15206095    -0.10800
C876        C  0.10476600  0.97446624  0.21977185     0.05600
H877        H  0.15790194  0.48265306  0.23960231     0.07600
H878        H  0.19689030  0.48117098  0.21033685     0.11000
H879        H  0.14332768  0.96134092  0.12795315     0.11300
H880        H  0.10407050  0.96294747  0.15794262     0.07600
C881        C  0.08675729  0.98585296  0.20891475    -0.11500
C882        C  0.06534356  0.98664787  0.22808034    -0.10800
C883        C  0.06191943  0.97638646  0.25842750    -0.01700
C884        C  0.07943058  0.96443723  0.26890520    -0.11900
C885        C  0.10029396  0.96318586  0.24977036    -0.10300
H886        H  0.08975805  0.99483792  0.18595619     0.07600
H887        H  0.05211357  0.99601766  0.21951946     0.11300
H888        H  0.07691484  0.95588459  0.29203246     0.11000
H889        H  0.11307354  0.95342900  0.25860500     0.07600
C890        C  0.38741886  0.88700923  0.46355770    -0.11500
C891        C  0.37019875  0.85722312  0.45346498     0.05600
C892        C  0.37617811  0.84948633  0.42452352    -0.10300
C893        C  0.39737409  0.87117591  0.40530020    -0.11900
C894        C  0.41358931  0.90115835  0.41464613    -0.01700
C895        C  0.40908280  0.90883909  0.44428842    -0.10800
C896        C  0.34476642  0.83436777  0.47174909     0.05600
H897        H  0.36393391  0.82662620  0.41642047     0.07600
H898        H  0.40078960  0.86450383  0.38279220     0.11000
H899        H  0.42135614  0.93182351  0.45201035     0.11300
H900        H  0.38329078  0.89362823  0.48575894     0.07600
C901        C  0.34695283  0.83172100  0.50358819    -0.11500
C902        C  0.32290908  0.80924056  0.52002964    -0.10800
C903        C  0.29399644  0.79180890  0.00627023    -0.01700
C904        C  0.29400619  0.79218023  0.47321385    -0.11900
C905        C  0.31787809  0.81455049  0.45690998    -0.10300
H906        H  0.36742169  0.84659759  0.51562604     0.07600
H907        H  0.32470490  0.80783871  0.04480286     0.11300
H908        H  0.27376032  0.77731537  0.46083959     0.11000
H909        H  0.31521516  0.81641119  0.43252394     0.07600
C910        C  0.15982809  0.64439323  0.49648639    -0.11500
C911        C  0.15268371  0.65110350  0.46756959     0.05600
C912        C  0.16847979  0.68067649  0.45697251    -0.10300
C913        C  0.19144995  0.70296249  0.47450616    -0.17900
C914        C  0.19876394  0.69633675  0.50335686    -0.01700
C915        C  0.18189989  0.66873103  0.01470652    -0.10800
C916        C  0.12968412  0.62741889  0.44770912     0.05600
H917        H  0.16357783  0.68639315  0.43466626     0.07600
H918        H  0.20354924  0.72544415  0.46544319     0.11000
H919        H  0.18793779  0.66277546  0.03626815     0.11300
H920        H  0.14840512  0.62336847  0.00483715     0.07600
C921        C  0.13074455  0.60134781  0.44110155    -0.11500
C922        C  0.11128020  0.58077365  0.41941925    -0.10800
C923        C  0.09011621  0.58570517  0.40416924    -0.01700
C924        C  0.08815046  0.61109278  0.41205679    -0.11900
C925        C  0.10784914  0.63179630  0.43338500    -0.10300
H926        H  0.14745676  0.59751715  0.45176985     0.07600
H927        H  0.11325500  0.56135088  0.41413179     0.11300
H928        H  0.07195998  0.61549939  0.40106285     0.11000
H929        H  0.10638508  0.65157161  0.43833368     0.07600
C930        C  0.34201273  0.83383061  0.17026077    -0.11500
C931        C  0.34577827  0.82921882  0.20132220     0.05600
C932        C  0.32665338  0.80112326  0.21435754    -0.10300
C933        C  0.30346229  0.77870449  0.19727243    -0.11900
C934        C  0.29900525  0.78362363  0.16655320    -0.01700
C935        C  0.31891011  0.81120597  0.15300568    -0.10800
C936        C  0.36837114  0.85387044  0.22071051     0.05600
H937        H  0.32939762  0.79652541  0.23798272     0.07600
H938        H  0.28883991  0.75755450  0.20827504     0.11000
H939        H  0.31605589  0.81567182  0.12936521     0.11300
H940        H  0.35622234  0.85525749  0.15958808     0.07600
C941        C  0.39688459  0.87446746  0.20939852    -0.11500
C942        C  0.41790004  0.89731520  0.22830934    -0.10800
C943        C  0.41075015  0.89975252  0.25883780    -0.01700
C944        C  0.38214564  0.87945793  0.26986462    -0.11900
C945        C  0.36121747  0.85697738  0.25104345    -0.10300
H946        H  0.40313054  0.87256611  0.18617121     0.07600
H947        H  0.43986916  0.91258170  0.21933106     0.11300
H948        H  0.37584686  0.88097800  0.29320217     0.11000
H949        H  0.33925948  0.84209901  0.26028100     0.07600
C950        C  0.10325086  0.62196219  0.22639110    -0.11500
C951        C  0.13061558  0.62320877  0.22097690     0.05600
C952        C  0.13666694  0.60274235  0.23587040    -0.10300
C953        C  0.11652830  0.58243267  0.25697638    -0.11900
C954        C  0.08995642  0.58232331  0.26397897    -0.01700
C955        C  0.08312741  0.60177900  0.24784628    -0.10800
C956        C  0.15417072  0.64735457  0.20222382     0.05600
H957        H  0.15746852  0.60304266  0.23175638     0.07600
H958        H  0.12239369  0.56760407  0.26868988     0.11000
H959        H  0.06265152  0.60199303  0.25241866     0.11300
H960        H  0.09809695  0.63753297  0.21515728     0.07600
C961        C  0.14845421  0.65374858  0.17249558    -0.11500
C962        C  0.17156699  0.67616615  0.15500567    -0.10800
C963        C  0.20053315  0.69289268  0.16728389    -0.01700
C964        C  0.20584270  0.68674617  0.19726862    -0.11900
C965        C  0.18302124  0.66418946  0.21440873    -0.10300
H966        H  0.12632115  0.64107502  0.16267429     0.07600
H967        H  0.16674162  0.68057082  0.13205654     0.11300
H968        H  0.22782118  0.69917610  0.20748332     0.11000
H969        H  0.18789325  0.65997940  0.23743077     0.07600
C970        C  0.22563323  0.71817157  0.64894553     0.79500
N971        N  0.25003125  0.73948995  0.66389608    -0.78800
C972        C  0.27349912  0.76130868  0.64839379     0.82000
N973        N  0.27253466  0.76156564  0.61729330    -0.78700
C974        C  0.24837303  0.74017966  0.60188721     0.82100
N975        N  0.22481569  0.71857703  0.61778419    -0.80400
C976        C  0.22401751  0.71994330  0.52109775     0.79500
N977        N  0.22453864  0.71891489  0.55224102    -0.78800
C978        C  0.24792334  0.74071286  0.56819261     0.82000
N979        N  0.27104551  0.76330043  0.55285657    -0.78700
C980        C  0.27083760  0.76454276  0.52176903     0.82100
N981        N  0.24713982  0.74286193  0.50612274    -0.80400
C982        C  0.24403576  0.97114454  0.64774607     0.79500
N983        N  0.24262945  0.96880907  0.61667908    -0.78800
C984        C  0.21907584  0.96747452  0.60129832     0.82000
N985        N  0.19677911  0.96821045  0.61716751    -0.78700
C986        C  0.19798371  0.97046537  0.64824872     0.82100
N987        N  0.22176453  0.97208182  0.66320249    -0.80400
C988        C  0.24227437  0.97064436  0.52034246     0.79500
N989        N  0.24217924  0.96952539  0.55148936    -0.78800
C990        C  0.21845797  0.96693128  0.56758982     0.82000
N991        N  0.19469876  0.96527012  0.55239014    -0.78700
C992        C  0.19440257  0.96596768  0.52126022     0.82100
N993        N  0.21834970  0.96885597  0.50551902    -0.80400
C994        C  0.48671848  0.73811974  0.64939818     0.79500
N995        N  0.48667352  0.73864311  0.61820278    -0.78800
C996        C  0.48662019  0.71607217  0.60195275     0.82000
N997        N  0.48652263  0.69297073  0.61699559    -0.78700
C998        C  0.48654939  0.69228214  0.64809055     0.82100
N999        N  0.48673234  0.71495101  0.66394622    -0.80400
C1000       C  0.49395850  0.74262721  0.52177707     0.79500
N1001       N  0.49659103  0.72103986  0.50669507    -0.78800
C1002       C  0.49484551  0.69738634  0.52205916     0.82000
N1003       N  0.49089241  0.69567471  0.55289084    -0.78700
C1004       C  0.48873238  0.71735884  0.56834305     0.82100
N1005       N  0.49001763  0.74071390  0.55269587    -0.80400
O1006       O  0.41797119  0.50020081  0.80117941    -0.88900
C1007       C  0.07110504  0.56733501  0.87960416     1.11200
O1008       O  0.45439351  0.97723984  0.83524805    -1.36700
O1009       O  0.04984512  0.56970376  0.79941943    -0.90400
O1010       O  0.39387037  0.95072722  0.80126448    -0.91000
O1011       O  0.45558060  0.94575938  0.77118486    -0.79800
O1012       O  0.48358217  0.53494941  0.80596581    -1.01900
C1013       C  0.04203116  0.97934947  0.78030426     1.21200
O1014       O  0.48661926  0.94726333  0.83592664    -1.36800
Mn1015     Mn  0.48580190  0.97838434  0.86874304     1.82100
O1016       O  0.01897022  0.97933230  0.77143271    -0.78900
O1017       O  0.07666786  0.54667437  0.80105415    -0.88300
C1018       C  0.04105050  0.98027025  0.89279686     1.12300
C1019       C  0.07085582  0.56587057  0.78966235     1.07000
O1020       O  0.45515147  0.94764491  0.90039269    -0.79900
O1021       O  0.01719094  0.51012293  0.83517458    -1.33600
O1022       O  0.42812026  0.91880736  0.86489098    -0.99100
C1023       C  0.48812387  0.89231537  0.79173102     1.05700
Mn1024     Mn  0.06013542  0.51439706  0.83569518     1.48600
O1025       O  0.46286057  0.88733956  0.80152034    -0.88300
Mn1026     Mn  0.41252254  0.93690790  0.83594827     1.49600
O1027       O  0.41844799  0.50109718  0.86956468    -0.92100
C1028       C  0.48347335  0.53018380  0.77858091     1.18900
C1029       C  0.39875073  0.97686905  0.88006665     1.11000
Mn1030     Mn  0.48604796  0.97763795  0.80215604     1.81000
O1031       O  0.04610270  0.98067112  0.86545486    -0.97300
Mn1032     Mn  0.45067619  0.51616648  0.83516977     1.49300
C1033       C  0.39825846  0.97549061  0.79052655     1.07500
Mn1034     Mn  0.02839615  0.94689761  0.83682526     1.49900
C1035       C  0.48842094  0.89308650  0.88100484     1.10400
O1036       O  0.42785526  0.91858172  0.80725005    -1.03100
O1037       O  0.07665627  0.54735260  0.86997664    -0.92800
C1038       C  0.43223598  0.92291687  0.77977798     1.21700
O1039       O  0.04647480  0.98009993  0.80782758    -1.03500
O1040       O  0.05057196  0.57112692  0.86827296    -0.90900
O1041       O  0.01424149  0.91487756  0.87130886    -0.90500
O1042       O  0.39442630  0.95173705  0.87036914    -0.90500
Mn1043     Mn  0.01782842  0.55154915  0.83420411     1.47900
O1044       O  0.01737889  0.97937662  0.90076539    -0.79000
C1045       C  0.43273234  0.92365973  0.89229916     1.14700
O1046       O  0.48483429  0.50765171  0.77042301    -0.77700
O1047       O  0.48575299  0.50956910  0.89983928    -0.77300
Mn1048     Mn  0.44739217  0.90452914  0.83604592     1.51100
O1049       O  0.01453854  0.91376760  0.80297368    -0.89700
O1050       O  0.48441864  0.53608270  0.86360290    -0.97200
O1051       O  0.46311812  0.88736594  0.87047472    -0.92200
C1052       C  0.48534612  0.53244819  0.89110512     1.12500
C1053       C  0.49061690  0.62410100  0.00183858    -0.11500
C1054       C  0.49851696  0.62815196  0.97065256     0.05600
C1055       C  0.00987519  0.65615665  0.95825060    -0.10300
C1056       C  0.01057274  0.67939254  0.97521755    -0.11900
C1057       C  0.49650624  0.67342858  0.50517203    -0.01700
C1058       C  0.49145458  0.64743061  0.01904765    -0.10800
C1059       C  0.49446326  0.60272060  0.95114487     0.05600
H1060       H  0.01922703  0.66087372  0.93536929     0.07600
H1061       H  0.02021499  0.70133576  0.96492438     0.11000
H1062       H  0.47298041  0.63929710  0.53950589     0.11300
H1063       H  0.48260991  0.60256989  0.01261641     0.07600
C1064       C  0.50094139  0.58092866  0.96205927    -0.11500
C1065       C  0.49725709  0.55741235  0.94297203    -0.10800
C1066       C  0.48714335  0.55540717  0.91267496    -0.01700
C1067       C  0.48015194  0.57684041  0.90211325    -0.11900
C1068       C  0.48361573  0.60004192  0.92109326    -0.10300
H1069       H  0.50944804  0.58242307  0.98506509     0.07600
H1070       H  0.50302490  0.54129910  0.95161174     0.11300
H1071       H  0.97697054  0.57854961  0.87684729     0.11000
H1072       H  0.98168101  0.61820742  0.91011943     0.07600
C1073       C  0.51600093  0.80382373  0.96268965    -0.11500
C1074       C  0.49524562  0.81313870  0.96907003     0.05600
C1075       C  0.47579225  0.80042793  0.99407257    -0.10300
C1076       C  0.47863599  0.78118473  0.51428723    -0.11900
C1077       C  0.49698594  0.76868710  0.00505692    -0.01700
C1078       C  0.51662976  0.78158247  0.98030643    -0.10800
C1079       C  0.49322210  0.83510869  0.94880553     0.05600
H1080       H  0.46475485  0.81313789  0.50414881     0.07600
H1081       H  0.46577113  0.77403345  0.53526423     0.11000
H1082       H  0.53237466  0.77430847  0.97448908     0.11300
H1083       H  0.53108787  0.81304335  0.94342271     0.07600
C1084       C  0.51922871  0.86053597  0.93860810    -0.11500
C1085       C  0.51752390  0.87988142  0.91744735    -0.10800
C1086       C  0.48974772  0.87414246  0.90578696    -0.01700
C1087       C  0.46363782  0.84927810  0.91686455    -0.11900
C1088       C  0.46537129  0.82998910  0.93819749    -0.10300
H1089       H  0.04127118  0.86475176  0.94688559     0.07600
H1090       H  0.03900484  0.89907452  0.91012927     0.11300
H1091       H  0.44190187  0.84425387  0.90846032     0.11000
H1092       H  0.44497402  0.81044040  0.94554278     0.07600
C1093       C  0.48136474  0.61786789  0.66685752    -0.11500
C1094       C  0.48576513  0.62036161  0.69879940     0.05600
C1095       C  0.99183432  0.64717451  0.71355813    -0.10300
C1096       C  0.99251908  0.67047103  0.69694362    -0.11900
C1097       C  0.48704354  0.66763670  0.66495334    -0.01700
C1098       C  0.48202210  0.64133437  0.65005431    -0.10800
C1099       C  0.48318070  0.59518604  0.71756964     0.05600
H1100       H  0.99571376  0.65000831  0.73804936     0.07600
H1101       H  0.99659887  0.69038281  0.70924372     0.11000
H1102       H  0.47799862  0.63863532  0.62557717     0.11300
H1103       H  0.47658837  0.59751300  0.65503436     0.07600
C1104       C  0.46938973  0.58956955  0.74643683    -0.11500
C1105       C  0.46902867  0.56796769  0.76570518    -0.10800
C1106       C  0.48193133  0.55094099  0.75644596    -0.01700
C1107       C  0.99488018  0.55550508  0.72685023    -0.11900
C1108       C  0.99560401  0.57763903  0.70766326    -0.10300
H1109       H  0.45912294  0.60220121  0.75437381     0.07600
H1110       H  0.45882637  0.56474744  0.78809857     0.11300
H1111       H  0.00512251  0.54275370  0.71921330     0.11000
H1112       H  0.00649205  0.58158692  0.68559884     0.07600
C1113       C  0.01661623  0.85051309  0.74311846    -0.11500
C1114       C  0.48966577  0.83196846  0.72459172     0.05600
C1115       C  0.46421344  0.83488575  0.72770513    -0.10300
C1116       C  0.46377244  0.85488796  0.74913401    -0.11900
C1117       C  0.48899866  0.87271461  0.76738755    -0.01700
C1118       C  0.01648875  0.87093941  0.76406495    -0.10800
C1119       C  0.48918064  0.80849706  0.70468175     0.05600
H1120       H  0.44432461  0.82088588  0.71440182     0.07600
H1121       H  0.44357703  0.85610939  0.75171147     0.11000
H1122       H  0.03602277  0.88378413  0.77826178     0.11300
H1123       H  0.03624847  0.84815682  0.74150619     0.07600
C1124       C  0.98231991  0.80660361  0.67381299    -0.11500
C1125       C  0.98174368  0.78399219  0.65542038    -0.10800
C1126       C  0.48778031  0.76274195  0.66791084    -0.01700
C1127       C  0.49614241  0.76563818  0.69897577    -0.11900
C1128       C  0.49702560  0.78833352  0.71704480    -0.10300
H1129       H  0.97642902  0.82214686  0.66380715     0.07600
H1130       H  0.97521975  0.78239478  0.63159956     0.11300
H1131       H  0.50219003  0.75039417  0.70943892     0.11000
H1132       H  0.50341597  0.78987736  0.74091966     0.07600
C1133       C  0.29703557  0.98916217  0.95607364    -0.11500
C1134       C  0.31535055  0.97840253  0.96724178     0.05600
C1135       C  0.30969826  0.46514548  0.99700103    -0.10300
C1136       C  0.28705656  0.46446934  0.01523264    -0.11900
C1137       C  0.26836222  0.97469454  0.00344339    -0.01700
C1138       C  0.27287559  0.98550990  0.47244937    -0.10800
C1139       C  0.33854537  0.97856061  0.94720358     0.05600
H1140       H  0.32336627  0.45650307  0.00611830     0.07600
H1141       H  0.28347247  0.45503164  0.03804066     0.11000
H1142       H  0.25840770  0.99286777  0.46261064     0.11300
H1143       H  0.30025909  0.99832792  0.93315500     0.07600
C1144       C  0.33956742  0.95222215  0.94217306    -0.11500
C1145       C  0.35953668  0.95167080  0.92084957    -0.10800
C1146       C  0.37913282  0.97759111  0.90448191    -0.01700
C1147       C  0.37883061  0.00421144  0.91055727    -0.11900
C1148       C  0.35858778  0.00460755  0.93147348    -0.10300
H1149       H  0.32416642  0.93181303  0.95393168     0.07600
H1150       H  0.35930216  0.93086040  0.91683906     0.11300
H1151       H  0.39363819  0.02461639  0.89845280     0.11000
H1152       H  0.35831602  0.02521468  0.93511825     0.07600
C1153       C  0.11349008  0.49207681  0.92565650    -0.11500
C1154       C  0.10251578  0.97313932  0.95336692     0.05600
C1155       C  0.07229337  0.96037618  0.96172034    -0.10300
C1156       C  0.05223233  0.96374240  0.94276029    -0.11900
C1157       C  0.06213295  0.97969194  0.91514606    -0.01700
C1158       C  0.09322619  0.49449177  0.90656702    -0.10800
C1159       C  0.12391050  0.96827581  0.97175021     0.05600
H1160       H  0.06400570  0.94697391  0.98227048     0.07600
H1161       H  0.02884420  0.95281930  0.94894805     0.11000
H1162       H  0.10120637  0.50687822  0.88535696     0.11300
H1163       H  0.13672687  0.50303366  0.91889408     0.07600
C1164       C  0.14520513  0.96349495  0.95674025    -0.11500
C1165       C  0.16751065  0.96204491  0.97325173    -0.10800
C1166       C  0.16886035  0.96465664  0.50438358    -0.01700
C1167       C  0.14680471  0.96818580  0.51958294    -0.11900
C1168       C  0.12438346  0.96979851  0.00394761    -0.10300
H1169       H  0.14491494  0.96133359  0.93201932     0.07600
H1170       H  0.18390111  0.95903128  0.96073812     0.11300
H1171       H  0.14748475  0.97092214  0.54424450     0.11000
H1172       H  0.10833518  0.97346248  0.51501616     0.07600
C1173       C  0.30824846  0.96007354  0.67261450    -0.11500
C1174       C  0.31630311  0.97560704  0.70065043     0.05600
C1175       C  0.30128356  0.99047028  0.71035729    -0.10300
C1176       C  0.27808802  0.98917973  0.69288430    -0.11900
C1177       C  0.26973467  0.97346826  0.66498857    -0.01700
C1178       C  0.28536083  0.95934194  0.65468225    -0.10800
C1179       C  0.33940441  0.97560347  0.72070074     0.05600
H1180       H  0.30788292  0.50297606  0.73199335     0.07600
H1181       H  0.26771011  0.50168175  0.70150109     0.11000
H1182       H  0.27928481  0.94702145  0.63328812     0.11300
H1183       H  0.31961955  0.94851110  0.66468527     0.07600
C1184       C  0.33749149  0.94862800  0.72972477    -0.11500
C1185       C  0.35699781  0.94849174  0.75193909    -0.10800
C1186       C  0.37895883  0.97539964  0.76527542    -0.01700
C1187       C  0.38164937  0.00245483  0.75502975    -0.11900
C1188       C  0.36197883  0.00251988  0.73315157    -0.10300
H1189       H  0.32009721  0.92757601  0.72055801     0.07600
H1190       H  0.35442722  0.92729672  0.75915018     0.11300
H1191       H  0.39843931  0.02363604  0.76454262     0.11000
H1192       H  0.36398552  0.02360215  0.72637121     0.07600
C1193       C  0.12558102  0.96875505  0.66922667    -0.11500
C1194       C  0.12918974  0.97412385  0.70102095     0.05600
C1195       C  0.15579799  0.97889076  0.71483502    -0.10300
C1196       C  0.17782848  0.97758543  0.69765728    -0.11900
C1197       C  0.17419035  0.97187137  0.66598148    -0.01700
C1198       C  0.14788183  0.96768290  0.65186654    -0.10800
C1199       C  0.10540686  0.97428355  0.72020783     0.05600
H1200       H  0.16212356  0.48978208  0.73770444     0.07600
H1201       H  0.20058379  0.48761042  0.70813809     0.11000
H1202       H  0.14436363  0.96325555  0.62749884     0.11300
H1203       H  0.10529686  0.96477702  0.65786818     0.07600
C1204       C  0.08800516  0.98643272  0.70946557    -0.11500
C1205       C  0.06678833  0.98765480  0.72860540    -0.10800
C1206       C  0.06297428  0.97713063  0.75887225    -0.01700
C1207       C  0.07992734  0.96453342  0.76929136    -0.11900
C1208       C  0.10054709  0.96280285  0.75016053    -0.10300
H1209       H  0.09129824  0.99566024  0.68659844     0.07600
H1210       H  0.05400985  0.99753789  0.72008318     0.11300
H1211       H  0.07713106  0.95580112  0.79236644     0.11000
H1212       H  0.11276249  0.95243748  0.75897418     0.07600
C1213       C  0.38656679  0.88855061  0.96401187    -0.11500
C1214       C  0.36782271  0.85900771  0.95395649     0.05600
C1215       C  0.37248675  0.85070659  0.92471171    -0.10300
C1216       C  0.39412860  0.87167419  0.90526234    -0.11900
C1217       C  0.41197174  0.90149121  0.91461148    -0.01700
C1218       C  0.40856198  0.90966513  0.94446100    -0.10800
C1219       C  0.34233531  0.83693746  0.97272387     0.05600
H1220       H  0.35894066  0.82796193  0.91661930     0.07600
H1221       H  0.39662412  0.86459499  0.88259862     0.11000
H1222       H  0.42206754  0.93253424  0.95220486     0.11300
H1223       H  0.38345075  0.89555529  0.98645556     0.07600
C1224       C  0.34544485  0.83313300  0.00415231    -0.11500
C1225       C  0.32148744  0.81073577  0.02078490    -0.10800
C1226       C  0.29621573  0.78904161  0.50492912    -0.01700
C1227       C  0.29080595  0.79636629  0.97508681    -0.11900
C1228       C  0.31459063  0.81864431  0.95860269    -0.10300
H1229       H  0.36659500  0.84687308  0.01560658     0.07600
H1230       H  0.32538754  0.80745007  0.54446214     0.11300
H1231       H  0.26990769  0.78255552  0.96323311     0.11000
H1232       H  0.31130563  0.82147660  0.93458092     0.07600
C1233       C  0.15942552  0.64621482  0.99673984    -0.11500
C1234       C  0.15132876  0.65316433  0.96847979     0.05600
C1235       C  0.16597638  0.68300113  0.95860894    -0.10300
C1236       C  0.18887504  0.70534495  0.97617254    -0.17900
C1237       C  0.19717457  0.69844082  0.00432748    -0.01700
C1238       C  0.18242365  0.66690605  0.51441082    -0.10800
C1239       C  0.12874171  0.62940756  0.94842751     0.05600
H1240       H  0.16030469  0.68888845  0.93679512     0.07600
H1241       H  0.20016989  0.72806057  0.96767893     0.11000
H1242       H  0.18766804  0.66114560  0.53651686     0.11300
H1243       H  0.14791584  0.62176103  0.50517111     0.07600
C1244       C  0.13123699  0.60435661  0.94067669    -0.11500
C1245       C  0.11206859  0.58374292  0.91889761    -0.10800
C1246       C  0.08979810  0.58761873  0.90465381    -0.01700
C1247       C  0.08641235  0.61192835  0.91368366    -0.11900
C1248       C  0.10581963  0.63270155  0.93514201    -0.10300
H1249       H  0.14881566  0.60139493  0.95053798     0.07600
H1250       H  0.11515757  0.56516208  0.91271816     0.11300
H1251       H  0.06930169  0.61544681  0.90351248     0.11000
H1252       H  0.10326164  0.65167395  0.94101346     0.07600
C1253       C  0.34393683  0.83405988  0.66828087    -0.11500
C1254       C  0.34530109  0.83136682  0.70023435     0.05600
C1255       C  0.32419575  0.80469839  0.71441034    -0.10300
C1256       C  0.30145301  0.78182129  0.69738300    -0.11900
C1257       C  0.29926493  0.78486596  0.66562494    -0.01700
C1258       C  0.32112335  0.81099173  0.65110912    -0.10800
C1259       C  0.36773168  0.85643035  0.71924958     0.05600
H1260       H  0.32509243  0.80158899  0.73885939     0.07600
H1261       H  0.28532467  0.76184917  0.70929073     0.11000
H1262       H  0.32011928  0.81399483  0.62665777     0.11300
H1263       H  0.35986508  0.85436978  0.65673217     0.07600
C1264       C  0.39763087  0.87385565  0.70980788    -0.11500
C1265       C  0.41871576  0.89632828  0.72897757    -0.10800
C1266       C  0.41021289  0.90139627  0.75793540    -0.01700
C1267       C  0.38023898  0.88455248  0.76690787    -0.11900
C1268       C  0.35922341  0.86256987  0.74770642    -0.10300
H1269       H  0.40486182  0.86953136  0.68806574     0.07600
H1270       H  0.44178129  0.90894975  0.72169413     0.11300
H1271       H  0.37303188  0.88830297  0.78896463     0.11000
H1272       H  0.33624484  0.85015750  0.75529621     0.07600
C1273       C  0.10395529  0.62588467  0.72812476    -0.11500
C1274       C  0.13079509  0.62634369  0.72170499     0.05600
C1275       C  0.13630258  0.60507058  0.73557892    -0.10300
C1276       C  0.11620544  0.58470546  0.75663522    -0.11900
C1277       C  0.09014818  0.58524154  0.76456996    -0.01700
C1278       C  0.08382562  0.60556936  0.74950124    -0.10800
C1279       C  0.15435751  0.65023259  0.70271831     0.05600
H1280       H  0.15663346  0.60468894  0.73063964     0.07600
H1281       H  0.12167723  0.56920102  0.76748317     0.11000
H1282       H  0.06376326  0.60633094  0.75482876     0.11300
H1283       H  0.09921078  0.64207581  0.71768468     0.07600
C1284       C  0.14816728  0.65767970  0.67369080    -0.11500
C1285       C  0.17130604  0.67953340  0.65575632    -0.10800
C1286       C  0.20076926  0.69464604  0.66694952    -0.01700
C1287       C  0.20660705  0.68755404  0.69626860    -0.11900
C1288       C  0.18374866  0.66554711  0.71382193    -0.10300
H1289       H  0.12562909  0.64619917  0.66470188     0.07600
H1290       H  0.16615026  0.68480803  0.63335403     0.11300
H1291       H  0.22902687  0.69879223  0.70558160     0.11000
H1292       H  0.18904631  0.66054636  0.73629925     0.07600
C1293       C  0.72458454  0.21790393  0.14821155     0.79500
N1294       N  0.74844016  0.23968779  0.16343302    -0.78800
C1295       C  0.77179601  0.26191154  0.14817548     0.82000
N1296       N  0.77130745  0.26213324  0.11706837    -0.78700
C1297       C  0.74770005  0.24033357  0.10141016     0.82100
N1298       N  0.72423460  0.21829886  0.11703811    -0.80400
C1299       C  0.72417068  0.21978805  0.02062650     0.79500
N1300       N  0.72445138  0.21898400  0.05175121    -0.78800
C1301       C  0.74776930  0.24073052  0.06773557     0.82000
N1302       N  0.77115761  0.26308675  0.05244334    -0.78700
C1303       C  0.77121592  0.26408816  0.02131695     0.82100
N1304       N  0.74750745  0.24244806  0.00562031    -0.80400
C1305       C  0.74343540  0.47095973  0.14755810     0.79500
N1306       N  0.74207170  0.46843872  0.11648931    -0.78800
C1307       C  0.71859260  0.46713240  0.10096627     0.82000
N1308       N  0.69634061  0.46808013  0.11667836    -0.78700
C1309       C  0.69751404  0.47056269  0.14772547     0.82100
N1310       N  0.72120329  0.47214086  0.16284240    -0.80400
C1311       C  0.74140785  0.46939205  0.01998870     0.79500
N1312       N  0.74147410  0.46855628  0.05114970    -0.78800
C1313       C  0.71788555  0.46627082  0.06726557     0.82000
N1314       N  0.69411831  0.46460282  0.05207142    -0.78700
C1315       C  0.69368713  0.46501447  0.02094297     0.82100
N1316       N  0.71750070  0.46763155  0.00518884    -0.80400
C1317       C  0.98767407  0.23915209  0.14867319     0.79500
N1318       N  0.98993885  0.24063352  0.11760175    -0.78800
C1319       C  0.99066221  0.21837640  0.10156270     0.82000
N1320       N  0.98951890  0.19482915  0.11675360    -0.78700
C1321       C  0.98759192  0.19336531  0.14782344     0.82100
N1322       N  0.98654082  0.21553221  0.16345466    -0.80400
C1323       C  0.99821559  0.24523459  0.02155743     0.79500
N1324       N  0.00067290  0.22365245  0.00627641    -0.78800
C1325       C  0.99909774  0.19999085  0.02149556     0.82000
N1326       N  0.99548140  0.19831471  0.05240176    -0.78700
C1327       C  0.99344135  0.21999592  0.06800633     0.82100
N1328       N  0.99448925  0.24328967  0.05247519    -0.80400
O1329       O  0.91819078  0.99974084  0.29971748    -0.88900
C1330       C  0.57163635  0.06653447  0.37896283     1.11200
O1331       O  0.95415198  0.47703885  0.33517696    -1.36700
O1332       O  0.55019242  0.06872643  0.29868983    -0.90400
O1333       O  0.89382035  0.45089248  0.30078683    -0.91000
O1334       O  0.95492024  0.44505546  0.27126529    -0.79800
O1335       O  0.98385547  0.03466134  0.30547212    -1.01900
C1336       C  0.54124402  0.47816763  0.27984877     1.21200
O1337       O  0.98588063  0.44657015  0.33610240    -1.36800
Mn1338     Mn  0.98549532  0.47796125  0.36875196     1.82100
O1339       O  0.51819085  0.47821443  0.27113025    -0.78900
O1340       O  0.57669639  0.04536524  0.30048748    -0.88300
C1341       C  0.54084556  0.47958531  0.39235713     1.12300
C1342       C  0.57101650  0.06459072  0.28893423     1.07000
O1343       O  0.95470649  0.44763754  0.40056158    -0.79900
O1344       O  0.51716630  0.00954076  0.33484137    -1.33600
O1345       O  0.92740949  0.41910331  0.36506595    -0.99100
C1346       C  0.98623871  0.39099602  0.29223410     1.05700
Mn1347     Mn  0.55988064  0.01319667  0.33523884     1.48600
O1348       O  0.96136656  0.38621486  0.30295126    -0.88300
Mn1349     Mn  0.91207717  0.43703969  0.33580310     1.49600
O1350       O  0.91798851  0.00066516  0.36819140    -0.92100
C1351       C  0.98403398  0.03025448  0.27806924     1.18900
C1352       C  0.89880075  0.47738597  0.37976668     1.11000
Mn1353     Mn  0.98557431  0.47693337  0.30215356     1.81000
O1354       O  0.54574791  0.47979317  0.36499162    -0.97300
Mn1355     Mn  0.95055464  0.01577718  0.33413693     1.49300
C1356       C  0.89833010  0.47569544  0.29005407     1.07500
Mn1357     Mn  0.52764669  0.44593081  0.33644486     1.49900
C1358       C  0.98675058  0.39257548  0.38196169     1.10400
O1359       O  0.92720618  0.41827408  0.30749274    -1.03100
O1360       O  0.57684455  0.04626974  0.36946848    -0.92800
C1361       C  0.93155019  0.42232416  0.28000025     1.21700
O1362       O  0.54586917  0.47901597  0.30734275    -1.03500
O1363       O  0.55128037  0.07058756  0.36757757    -0.90900
O1364       O  0.51338980  0.41397940  0.37109120    -0.90500
O1365       O  0.89411636  0.45219611  0.36991251    -0.90500
Mn1366     Mn  0.51832461  0.05119055  0.33367614     1.47900
O1367       O  0.51735249  0.47905197  0.40043426    -0.79000
C1368       C  0.93198651  0.42394397  0.39245246     1.14700
O1369       O  0.98545070  0.00774943  0.26983421    -0.77700
O1370       O  0.98494565  0.00906188  0.39937275    -0.77300
Mn1371     Mn  0.94631079  0.40419958  0.33672850     1.51100
O1372       O  0.51331687  0.41282745  0.30242323    -0.89700
O1373       O  0.98387551  0.03555214  0.36296267    -0.97200
O1374       O  0.96160441  0.38737826  0.37159062    -0.92200
C1375       C  0.98398018  0.03159860  0.39048813     1.12500
C1376       C  0.97958001  0.11906640  0.50079540    -0.11500
C1377       C  0.98872793  0.12343668  0.46997833     0.05600
C1378       C  0.51032749  0.15634988  0.45785631    -0.10300
C1379       C  0.51164118  0.17980730  0.47496882    -0.11900
C1380       C  0.00025920  0.17583271  0.00433897    -0.01700
C1381       C  0.98083043  0.14256740  0.51801723    -0.10800
C1382       C  0.98568059  0.09833513  0.45067572     0.05600
H1383       H  0.51968198  0.16097945  0.43497590     0.07600
H1384       H  0.52168119  0.20181527  0.46476539     0.11000
H1385       H  0.98322206  0.14370501  0.04149573     0.11300
H1386       H  0.97059658  0.09728725  0.51130295     0.07600
C1387       C  0.99200892  0.07667719  0.46228827    -0.11500
C1388       C  0.99069683  0.05425771  0.44307658    -0.10800
C1389       C  0.98318110  0.05329011  0.41198167    -0.01700
C1390       C  0.97582118  0.07426553  0.40078888    -0.11900
C1391       C  0.97689571  0.09635749  0.41989508    -0.10300
H1392       H  0.99886070  0.07761576  0.48590948     0.07600
H1393       H  0.99640524  0.03829026  0.45227648     0.11300
H1394       H  0.47777232  0.07899149  0.37615700     0.11000
H1395       H  0.48213857  0.11855076  0.40941833     0.07600
C1396       C  0.00924379  0.30016889  0.46183894    -0.11500
C1397       C  0.99048397  0.31145384  0.47002602     0.05600
C1398       C  0.97212973  0.29988608  0.49594106    -0.10300
C1399       C  0.98029358  0.28152181  0.01287775    -0.11900
C1400       C  0.99077301  0.26562642  0.50467332    -0.01700
C1401       C  0.00912459  0.27721672  0.47879849    -0.10800
C1402       C  0.98926920  0.33423569  0.45054673     0.05600
H1403       H  0.96427737  0.31150897  0.00154583     0.07600
H1404       H  0.96588075  0.27275738  0.03269640     0.11000
H1405       H  0.02339502  0.26850894  0.47170603     0.11300
H1406       H  0.02336348  0.30853217  0.44176795     0.07600
C1407       C  0.01572113  0.35938378  0.44076274    -0.11500
C1408       C  0.01480806  0.37906778  0.41948040    -0.10800
C1409       C  0.98739703  0.37382053  0.40729416    -0.01700
C1410       C  0.96082415  0.34943313  0.41831154    -0.11900
C1411       C  0.96176919  0.32985850  0.43979140    -0.10300
H1412       H  0.54080317  0.36484666  0.44726076     0.07600
H1413       H  0.53835070  0.39897802  0.41047355     0.11300
H1414       H  0.93932833  0.34486417  0.40959348     0.11000
H1415       H  0.94107822  0.31055082  0.44696437     0.07600
C1416       C  0.98129625  0.11850927  0.16707966    -0.11500
C1417       C  0.98579307  0.12105313  0.19902721     0.05600
C1418       C  0.49141062  0.14693999  0.21346215    -0.10300
C1419       C  0.49216986  0.17030841  0.19688865    -0.11900
C1420       C  0.98732579  0.16843060  0.16493668    -0.01700
C1421       C  0.98212709  0.14201811  0.15017016    -0.10800
C1422       C  0.98361705  0.09595631  0.21779542     0.05600
H1423       H  0.49567068  0.14987506  0.23789131     0.07600
H1424       H  0.49674290  0.19040365  0.20913521     0.11000
H1425       H  0.97820019  0.13931251  0.12567834     0.11300
H1426       H  0.97646480  0.09813074  0.15527894     0.07600
C1427       C  0.97068815  0.09064749  0.24709316    -0.11500
C1428       C  0.97042762  0.06888978  0.26607476    -0.10800
C1429       C  0.98259783  0.05135613  0.25618862    -0.01700
C1430       C  0.49451095  0.05521960  0.22638776    -0.11900
C1431       C  0.49495423  0.07729121  0.20727112    -0.10300
H1432       H  0.96086949  0.10351758  0.25555646     0.07600
H1433       H  0.96078645  0.06589335  0.28873641     0.11300
H1434       H  0.50463310  0.04242713  0.21852388     0.11000
H1435       H  0.50551461  0.08114859  0.18503134     0.07600
C1436       C  0.51496632  0.35664684  0.23282411    -0.11500
C1437       C  0.98546053  0.33038220  0.22383812     0.05600
C1438       C  0.95914901  0.32438593  0.23912949    -0.10300
C1439       C  0.95930075  0.34451563  0.26058184    -0.11900
C1440       C  0.98585941  0.37106727  0.26750716    -0.01700
C1441       C  0.51513637  0.37688719  0.25435481    -0.10800
C1442       C  0.98565445  0.30733120  0.20366107     0.05600
H1443       H  0.93846607  0.30382309  0.23479014     0.07600
H1444       H  0.93870119  0.33881645  0.27236609     0.11000
H1445       H  0.53628599  0.39603872  0.26077797     0.11300
H1446       H  0.53591594  0.36043798  0.22328965     0.07600
C1447       C  0.50103825  0.31472890  0.17550291    -0.11500
C1448       C  0.50052914  0.29229392  0.15690373    -0.10800
C1449       C  0.98640375  0.26273122  0.16676261    -0.01700
C1450       C  0.97216297  0.25556213  0.19541388    -0.11900
C1451       C  0.97164763  0.27752377  0.21353877    -0.10300
H1452       H  0.51139511  0.33742171  0.16700179     0.07600
H1453       H  0.51080106  0.29813218  0.13447085     0.11300
H1454       H  0.96135782  0.23284310  0.20390746     0.11000
H1455       H  0.96077539  0.27127347  0.23567208     0.07600
C1456       C  0.79772360  0.48954414  0.45624375    -0.11500
C1457       C  0.81626948  0.47919964  0.46771051     0.05600
C1458       C  0.81076125  0.96561407  0.49716646    -0.10300
C1459       C  0.78808506  0.96500853  0.51530593    -0.11900
C1460       C  0.76911516  0.47542348  0.50364256    -0.01700
C1461       C  0.77224209  0.48468364  0.97231959    -0.10800
C1462       C  0.83946409  0.47933747  0.44773807     0.05600
H1463       H  0.82473555  0.95744716  0.50655256     0.07600
H1464       H  0.78480307  0.95612200  0.53834490     0.11000
H1465       H  0.75829776  0.49285939  0.96286605     0.11300
H1466       H  0.80083660  0.49840500  0.43319396     0.07600
C1467       C  0.84015948  0.45288560  0.44236785    -0.11500
C1468       C  0.85984763  0.45225587  0.42074226    -0.10800
C1469       C  0.87947480  0.47820795  0.40442233    -0.01700
C1470       C  0.87956901  0.50494892  0.41090543    -0.11900
C1471       C  0.85959640  0.50542535  0.43212518    -0.10300
H1472       H  0.82467057  0.43245506  0.45404149     0.07600
H1473       H  0.85935257  0.43135899  0.41644756     0.11300
H1474       H  0.89444569  0.52537695  0.39887162     0.11000
H1475       H  0.85952522  0.52609988  0.43602973     0.07600
C1476       C  0.61346960  0.99076295  0.42437379    -0.11500
C1477       C  0.60266742  0.47263684  0.45261635     0.05600
C1478       C  0.57235692  0.45934902  0.46082892    -0.10300
C1479       C  0.55215817  0.46262132  0.44198693    -0.11900
C1480       C  0.56199828  0.47898534  0.41460906    -0.01700
C1481       C  0.59301360  0.99297806  0.40540150    -0.10800
C1482       C  0.62428807  0.46812751  0.47103824     0.05600
H1483       H  0.56413005  0.44566540  0.48120361     0.07600
H1484       H  0.52873258  0.45133382  0.44807196     0.11000
H1485       H  0.60072491  0.00480465  0.38385749     0.11300
H1486       H  0.63656225  0.00134155  0.41716556     0.07600
C1487       C  0.64606356  0.46404002  0.45610560    -0.11500
C1488       C  0.66847417  0.46287225  0.47273751    -0.10800
C1489       C  0.66817741  0.46371325  0.00404979    -0.01700
C1490       C  0.64604900  0.46713253  0.01922892    -0.11900
C1491       C  0.62447616  0.46932968  0.50324868    -0.10300
H1492       H  0.64604440  0.46217296  0.43136604     0.07600
H1493       H  0.68520076  0.46035503  0.46028732     0.11300
H1494       H  0.64662133  0.46973396  0.04390395     0.11000
H1495       H  0.60757219  0.47238628  0.01458440     0.07600
C1496       C  0.80790706  0.46018591  0.17237698    -0.11500
C1497       C  0.81559933  0.47523716  0.20069775     0.05600
C1498       C  0.80006041  0.48947098  0.21074945    -0.10300
C1499       C  0.77687461  0.48819265  0.19325355    -0.11900
C1500       C  0.76898641  0.47308833  0.16499592    -0.01700
C1501       C  0.78499834  0.45943984  0.15445190    -0.10800
C1502       C  0.83900377  0.47553994  0.22057068     0.05600
H1503       H  0.80507471  0.99901395  0.23322571     0.07600
H1504       H  0.76492400  0.99796602  0.20291036     0.11000
H1505       H  0.77928342  0.44755402  0.13280254     0.11300
H1506       H  0.81964404  0.44908980  0.16416077     0.07600
C1507       C  0.83815624  0.44880876  0.22856570    -0.11500
C1508       C  0.85789050  0.44881241  0.25059977    -0.10800
C1509       C  0.87903985  0.47563018  0.26478355    -0.01700
C1510       C  0.88077763  0.50251723  0.25548091    -0.11900
C1511       C  0.86086687  0.50242821  0.23379447    -0.10300
H1512       H  0.82138507  0.42777108  0.21876395     0.07600
H1513       H  0.85611286  0.42775480  0.25702531     0.11300
H1514       H  0.89693509  0.52363105  0.26565663     0.11000
H1515       H  0.86212214  0.52335331  0.22777816     0.07600
C1516       C  0.62423386  0.46701644  0.16849719    -0.11500
C1517       C  0.62822399  0.47355880  0.20005144     0.05600
C1518       C  0.65542785  0.48000243  0.21370583    -0.10300
C1519       C  0.67771604  0.47909392  0.19662637    -0.11900
C1520       C  0.67365829  0.47202223  0.16523719    -0.01700
C1521       C  0.64676085  0.46628216  0.15123365    -0.10800
C1522       C  0.60423640  0.47318321  0.21923776     0.05600
H1523       H  0.66070252  0.98886146  0.23717111     0.07600
H1524       H  0.69943496  0.98695592  0.20778662     0.11000
H1525       H  0.64292753  0.46078708  0.12707846     0.11300
H1526       H  0.60348161  0.46180851  0.15732528     0.07600
C1527       C  0.58640687  0.48483033  0.20852228    -0.11500
C1528       C  0.56527863  0.48597500  0.22785061    -0.10800
C1529       C  0.56195977  0.47581019  0.25823036    -0.01700
C1530       C  0.57922178  0.46352287  0.26854929    -0.11900
C1531       C  0.59980336  0.46192505  0.24924954    -0.10300
H1532       H  0.58937836  0.49380797  0.18556307     0.07600
H1533       H  0.55221789  0.49557269  0.21939373     0.11300
H1534       H  0.57676097  0.45501872  0.29169173     0.11000
H1535       H  0.61245075  0.45198609  0.25798630     0.07600
C1536       C  0.88579810  0.38865262  0.46401985    -0.11500
C1537       C  0.86723276  0.35911515  0.45386956     0.05600
C1538       C  0.87187611  0.35094275  0.42457213    -0.10300
C1539       C  0.89340746  0.37201962  0.40517567    -0.11900
C1540       C  0.91115821  0.40180279  0.41465221    -0.01700
C1541       C  0.90770809  0.40989070  0.44451397    -0.10800
C1542       C  0.84200560  0.33683096  0.47264478     0.05600
H1543       H  0.85843573  0.32820121  0.41642744     0.07600
H1544       H  0.89594633  0.36502803  0.38248267     0.11000
H1545       H  0.92114945  0.43274859  0.45231384     0.11300
H1546       H  0.88264669  0.39551926  0.48652281     0.07600
C1547       C  0.84549675  0.33272113  0.50388932    -0.11500
C1548       C  0.82183778  0.30997190  0.52047080    -0.10800
C1549       C  0.79679347  0.28838448  0.00449414    -0.01700
C1550       C  0.79073435  0.29585322  0.47506712    -0.11900
C1551       C  0.81421700  0.31850001  0.45864086    -0.10300
H1552       H  0.86672122  0.34648632  0.51520324     0.07600
H1553       H  0.82638626  0.30580158  0.04382619     0.11300
H1554       H  0.76976924  0.28200982  0.46333772     0.11000
H1555       H  0.81069239  0.32156538  0.43474935     0.07600
C1556       C  0.65975493  0.14517324  0.49651737    -0.11500
C1557       C  0.65223774  0.15213034  0.46792521     0.05600
C1558       C  0.66743235  0.18190255  0.45786809    -0.10300
C1559       C  0.69024087  0.20415158  0.47557891    -0.17900
C1560       C  0.69798045  0.19725877  0.50406749    -0.01700
C1561       C  0.68248321  0.16691709  0.01436568    -0.10800
C1562       C  0.62956757  0.12848823  0.44779384     0.05600
H1563       H  0.66223239  0.18781671  0.43581625     0.07600
H1564       H  0.70191469  0.22680100  0.46691289     0.11000
H1565       H  0.68809578  0.16118780  0.03629530     0.11300
H1566       H  0.64759263  0.12184914  0.00565932     0.07600
C1567       C  0.63130838  0.10287951  0.44067806    -0.11500
C1568       C  0.61208233  0.08233899  0.41884938    -0.10800
C1569       C  0.59049361  0.08684544  0.40393851    -0.01700
C1570       C  0.58788117  0.11176676  0.41229077    -0.11900
C1571       C  0.60733798  0.13244467  0.43378110    -0.10300
H1572       H  0.64834551  0.09939112  0.45109004     0.07600
H1573       H  0.61456020  0.06327884  0.41319805     0.11300
H1574       H  0.57133538  0.11581857  0.40157466     0.11000
H1575       H  0.60535077  0.15185382  0.43912570     0.07600
C1576       C  0.84159943  0.33495228  0.16867160    -0.11500
C1577       C  0.84341537  0.33165963  0.20046920     0.05600
C1578       C  0.82251400  0.30470026  0.21435056    -0.10300
C1579       C  0.79965015  0.28207651  0.19722259    -0.11900
C1580       C  0.79720998  0.28560180  0.16562004    -0.01700
C1581       C  0.81872417  0.31209126  0.15137856    -0.10800
C1582       C  0.86617751  0.35633849  0.21964132     0.05600
H1583       H  0.82372930  0.30108168  0.23863181     0.07600
H1584       H  0.78376700  0.26181758  0.20889132     0.11000
H1585       H  0.81747290  0.31546898  0.12704567     0.11300
H1586       H  0.85729036  0.35550461  0.15733589     0.07600
C1587       C  0.89576770  0.37441341  0.20950824    -0.11500
C1588       C  0.91715907  0.39660046  0.22870180    -0.10800
C1589       C  0.90928024  0.40076256  0.25835128    -0.01700
C1590       C  0.87961914  0.38319536  0.26808201    -0.11900
C1591       C  0.85830734  0.36149676  0.24890021    -0.10300
H1592       H  0.90254235  0.37087256  0.18713695     0.07600
H1593       H  0.93995825  0.40982196  0.22077698     0.11300
H1594       H  0.87283883  0.38623992  0.29067901     0.11000
H1595       H  0.83557573  0.34862915  0.25710252     0.07600
C1596       C  0.60314242  0.12303866  0.22584143    -0.11500
C1597       C  0.63049858  0.12431723  0.22023327     0.05600
C1598       C  0.63672816  0.10399323  0.23516776    -0.10300
C1599       C  0.61679109  0.08380332  0.25646967    -0.11900
C1600       C  0.59021166  0.08362628  0.26361202    -0.01700
C1601       C  0.58320185  0.10294892  0.24748457    -0.10800
C1602       C  0.65388910  0.14835883  0.20123474     0.05600
H1603       H  0.65751035  0.10429467  0.23091449     0.07600
H1604       H  0.62280293  0.06908222  0.26817849     0.11000
H1605       H  0.56271946  0.10311060  0.25217741     0.11300
H1606       H  0.59784991  0.13850361  0.21459498     0.07600
C1607       C  0.64784573  0.15487406  0.17168784    -0.11500
C1608       C  0.67080997  0.17723517  0.15399566    -0.10800
C1609       C  0.69991704  0.19378645  0.16593441    -0.01700
C1610       C  0.70558022  0.18749466  0.19570211    -0.11900
C1611       C  0.68292772  0.16499511  0.21301963    -0.10300
H1612       H  0.62556984  0.14235307  0.16216727     0.07600
H1613       H  0.66576790  0.18179312  0.13120653     0.11300
H1614       H  0.72771745  0.19978605  0.20559726     0.11000
H1615       H  0.68808128  0.16070786  0.23588592     0.07600
C1616       C  0.72599259  0.21717729  0.64957153     0.79500
N1617       N  0.75040528  0.23848818  0.66457055    -0.78800
C1618       C  0.77365728  0.26062804  0.64908961     0.82000
N1619       N  0.77244476  0.26123495  0.61802516    -0.78700
C1620       C  0.74830562  0.23986864  0.60260183     0.82100
N1621       N  0.72498888  0.21794350  0.61844219    -0.80400
C1622       C  0.72317096  0.22080727  0.52189625     0.79500
N1623       N  0.72412364  0.21917589  0.55296324    -0.78800
C1624       C  0.74750584  0.24091368  0.56896974     0.82000
N1625       N  0.77019297  0.26404338  0.55376172    -0.78700
C1626       C  0.76950161  0.26590274  0.52276460     0.82100
N1627       N  0.74582561  0.24428241  0.50706271    -0.80400
C1628       C  0.74329571  0.47048091  0.64881276     0.79500
N1629       N  0.74218528  0.46838903  0.61771857    -0.78800
C1630       C  0.71897748  0.46755790  0.60210797     0.82000
N1631       N  0.69673388  0.46857218  0.61775724    -0.78700
C1632       C  0.69765613  0.47066419  0.64883874     0.82100
N1633       N  0.72109209  0.47176888  0.66405973    -0.80400
C1634       C  0.74306026  0.47172717  0.52136476     0.79500
N1635       N  0.74263712  0.47022617  0.55249343    -0.78800
C1636       C  0.71869539  0.46732074  0.56839984     0.82000
N1637       N  0.69504062  0.46571035  0.55302196    -0.78700
C1638       C  0.69506482  0.46677050  0.52190026     0.82100
N1639       N  0.71923928  0.46998622  0.50635812    -0.80400
C1640       C  0.98781650  0.23946269  0.64896397     0.79500
N1641       N  0.98640778  0.23889790  0.61784045    -0.78800
C1642       C  0.98496868  0.21547052  0.60204200     0.82000
N1643       N  0.98462443  0.19245874  0.61751008    -0.78700
C1644       C  0.98584996  0.19278506  0.64862239     0.82100
N1645       N  0.98764302  0.21644333  0.66403721    -0.80400
C1646       C  0.98991261  0.24064933  0.52180095     0.79500
N1647       N  0.99181257  0.21875474  0.50652588    -0.78800
C1648       C  0.99027518  0.19514840  0.52183491     0.82000
N1649       N  0.98735961  0.19388948  0.55283201    -0.78700
C1650       C  0.98590868  0.21593481  0.56839587     0.82100
N1651       N  0.98692236  0.23915249  0.55277763    -0.80400
O1652       O  0.91904079  0.00064648  0.80067339    -0.88900
C1653       C  0.57060749  0.06608667  0.87974871     1.11200
O1654       O  0.95504365  0.47712540  0.83512397    -1.36700
O1655       O  0.54974121  0.06875475  0.79918818    -0.90400
O1656       O  0.89461579  0.45000338  0.80087510    -0.91000
O1657       O  0.95656849  0.44591913  0.77083709    -0.79800
O1658       O  0.98464179  0.03528370  0.80611762    -1.01900
C1659       C  0.54047641  0.47864777  0.77952628     1.21200
O1660       O  0.98802821  0.44796825  0.83577210    -1.36800
Mn1661     Mn  0.98663202  0.47868628  0.86862361     1.82100
O1662       O  0.51722214  0.47830630  0.77082222    -0.78900
O1663       O  0.57623728  0.04539367  0.80136779    -0.88300
C1664       C  0.54014660  0.47911969  0.89191883     1.12300
C1665       C  0.57068019  0.06466596  0.78971167     1.07000
O1666       O  0.95622647  0.44755445  0.90021291    -0.79900
O1667       O  0.51653406  0.00948122  0.83523200    -1.33600
O1668       O  0.92947390  0.41867829  0.86460044    -0.99100
C1669       C  0.99054664  0.39379069  0.79147920     1.05700
Mn1670     Mn  0.55912561  0.01299693  0.83586347     1.48600
O1671       O  0.96515756  0.38842389  0.80122425    -0.88300
Mn1672     Mn  0.91351135  0.43647631  0.83565052     1.49600
O1673       O  0.91910118  0.00150389  0.86906364    -0.92100
C1674       C  0.98454644  0.03092251  0.77870867     1.18900
C1675       C  0.89876047  0.47567491  0.87968522     1.11000
Mn1676     Mn  0.98690383  0.47804867  0.80201421     1.81000
O1677       O  0.54502275  0.47961626  0.86451647    -0.97300
Mn1678     Mn  0.95157039  0.01661006  0.83493161     1.49300
C1679       C  0.89866208  0.47472096  0.79033431     1.07500
Mn1680     Mn  0.52702928  0.44598959  0.83564727     1.49900
C1681       C  0.99059431  0.39442161  0.88091585     1.10400
O1682       O  0.92943341  0.41873363  0.80707994    -1.03100
O1683       O  0.57572764  0.04576419  0.87028766    -0.92800
C1684       C  0.93349090  0.42285471  0.77958753     1.21700
O1685       O  0.54493284  0.47939453  0.80700622    -1.03500
O1686       O  0.55055963  0.07046787  0.86811375    -0.90900
O1687       O  0.51323690  0.41376092  0.86990672    -0.90500
O1688       O  0.89483657  0.45072141  0.86992131    -0.90500
Mn1689     Mn  0.51775342  0.05118868  0.83407048     1.47900
O1690       O  0.51670325  0.47855772  0.90021761    -0.79000
C1691       C  0.93410956  0.42337265  0.89201669     1.14700
O1692       O  0.98621808  0.00861303  0.77028263    -0.77700
O1693       O  0.98623752  0.01003980  0.89984535    -0.77300
Mn1694     Mn  0.94921097  0.40499748  0.83575147     1.51100
O1695       O  0.51264065  0.41318579  0.80116664    -0.89700
O1696       O  0.98520539  0.03657526  0.86347732    -0.97200
O1697       O  0.96528320  0.38824956  0.87007410    -0.92200
C1698       C  0.98592636  0.03292988  0.89098287     1.12500
C1699       C  0.98969266  0.12437319  0.00079098    -0.11500
C1700       C  0.99824770  0.12853096  0.96980569     0.05600
C1701       C  0.50894916  0.15649718  0.95723167    -0.10300
C1702       C  0.51021323  0.17996159  0.97430832    -0.11900
C1703       C  0.99104655  0.17079935  0.50466726    -0.01700
C1704       C  0.99075981  0.14782289  0.01791790    -0.10800
C1705       C  0.99435437  0.10311846  0.95048240     0.05600
H1706       H  0.51712239  0.16080567  0.93387709     0.07600
H1707       H  0.51908793  0.20164743  0.96359744     0.11000
H1708       H  0.97294989  0.13837016  0.54147751     0.11300
H1709       H  0.98111746  0.10271730  0.01147026     0.07600
C1710       C  0.00068245  0.08133458  0.96172407    -0.11500
C1711       C  0.99721714  0.05782378  0.94280073    -0.10800
C1712       C  0.98746350  0.05584215  0.91237317    -0.01700
C1713       C  0.98061866  0.07728090  0.90148090    -0.11900
C1714       C  0.98388988  0.10049054  0.92029040    -0.10300
H1715       H  0.00891184  0.08284438  0.98486340     0.07600
H1716       H  0.00287310  0.04170461  0.95166803     0.11300
H1717       H  0.47383902  0.07694259  0.87741703     0.11000
H1718       H  0.47866728  0.11684403  0.91052768     0.07600
C1719       C  0.01665938  0.30416895  0.96108503    -0.11500
C1720       C  0.99739169  0.31491388  0.96897765     0.05600
C1721       C  0.97927253  0.30349180  0.99506076    -0.10300
C1722       C  0.97257365  0.27740626  0.51338830    -0.11900
C1723       C  0.99886031  0.27010552  0.00437485    -0.01700
C1724       C  0.01711562  0.28169943  0.97841537    -0.10800
C1725       C  0.99532331  0.33691748  0.94903704     0.05600
H1726       H  0.95748235  0.30825670  0.50265204     0.07600
H1727       H  0.95809476  0.26863110  0.53316055     0.11000
H1728       H  0.03166723  0.27328032  0.97147131     0.11300
H1729       H  0.03065655  0.31249948  0.94092415     0.07600
C1730       C  0.02128013  0.36272032  0.93950941    -0.11500
C1731       C  0.01958630  0.38202920  0.91830569    -0.10800
C1732       C  0.99189112  0.37570207  0.90588691    -0.01700
C1733       C  0.96579859  0.35043060  0.91638198    -0.11900
C1734       C  0.96751541  0.33126643  0.93783778    -0.10300
H1735       H  0.54244622  0.36631672  0.94632836     0.07600
H1736       H  0.53905984  0.39973479  0.90917923     0.11300
H1737       H  0.94412429  0.34497198  0.90739443     0.11000
H1738       H  0.94721958  0.31138137  0.94478288     0.07600
C1739       C  0.97797425  0.11751417  0.66858274    -0.11500
C1740       C  0.98435932  0.12091137  0.70017335     0.05600
C1741       C  0.49245277  0.14693019  0.71317232    -0.10300
C1742       C  0.49411327  0.17071147  0.69660685    -0.11900
C1743       C  0.98580172  0.16807015  0.66588586    -0.01700
C1744       C  0.97875669  0.14090478  0.65157572    -0.10800
C1745       C  0.98251131  0.09602874  0.71897951     0.05600
H1746       H  0.49741311  0.14996909  0.73747366     0.07600
H1747       H  0.50001659  0.19125034  0.70870288     0.11000
H1748       H  0.97335680  0.13752653  0.62737715     0.11300
H1749       H  0.97172762  0.09658411  0.65716106     0.07600
C1750       C  0.97161283  0.09198189  0.74910822    -0.11500
C1751       C  0.97181717  0.07038953  0.76794846    -0.10800
C1752       C  0.98248976  0.05184165  0.75711819    -0.01700
C1753       C  0.49223562  0.05383185  0.72613762    -0.11900
C1754       C  0.49252070  0.07568078  0.70682667    -0.10300
H1755       H  0.96304550  0.10570070  0.75831482     0.07600
H1756       H  0.96375873  0.06835825  0.79123612     0.11300
H1757       H  0.50162821  0.04045004  0.71804504     0.11000
H1758       H  0.50229373  0.07883098  0.68423925     0.07600
C1759       C  0.51304235  0.35838072  0.72902513    -0.11500
C1760       C  0.99295491  0.33463210  0.72339384     0.05600
C1761       C  0.96687915  0.33628573  0.72767770    -0.10300
C1762       C  0.96620445  0.35598158  0.74930467    -0.11900
C1763       C  0.99170002  0.37463617  0.76682653    -0.01700
C1764       C  0.51320843  0.37871685  0.75045763    -0.10800
C1765       C  0.99283905  0.31146580  0.70313083     0.05600
H1766       H  0.94668538  0.32153288  0.71517454     0.07600
H1767       H  0.94557579  0.35623937  0.75266789     0.11000
H1768       H  0.53372163  0.39957989  0.75425039     0.11300
H1769       H  0.53347454  0.36384432  0.71701971     0.07600
C1770       C  0.50011490  0.31446494  0.67480174    -0.11500
C1771       C  0.50036830  0.29226956  0.65641872    -0.10800
C1772       C  0.99035968  0.26503410  0.66670952    -0.01700
C1773       C  0.00442433  0.27175519  0.69549549    -0.11900
C1774       C  0.00579784  0.29477389  0.71340119    -0.10300
H1775       H  0.50951977  0.33694218  0.66590877     0.07600
H1776       H  0.51024940  0.29811636  0.63381122     0.11300
H1777       H  0.01428221  0.25904695  0.70432567     0.11000
H1778       H  0.01627806  0.29895093  0.73574329     0.07600
C1779       C  0.79542712  0.48639952  0.95443990    -0.11500
C1780       C  0.81358482  0.47545030  0.96558980     0.05600
C1781       C  0.80984257  0.96549592  0.99588966    -0.10300
C1782       C  0.78685330  0.96426553  0.01394041    -0.11900
C1783       C  0.76702728  0.47244687  0.00196727    -0.01700
C1784       C  0.77424490  0.48744212  0.47389908    -0.10800
C1785       C  0.83702964  0.47593034  0.94572193     0.05600
H1786       H  0.82389837  0.95739598  0.00520530     0.07600
H1787       H  0.78343629  0.95498860  0.03681150     0.11000
H1788       H  0.75994192  0.49504363  0.46414374     0.11300
H1789       H  0.79870377  0.49559180  0.93152876     0.07600
C1790       C  0.83848576  0.44982379  0.94071550    -0.11500
C1791       C  0.85897188  0.44974573  0.91976730    -0.10800
C1792       C  0.87863671  0.47591273  0.90377360    -0.01700
C1793       C  0.87781322  0.50226482  0.90977097    -0.11900
C1794       C  0.85708163  0.50219272  0.93031104    -0.10300
H1795       H  0.82308685  0.42925663  0.95223232     0.07600
H1796       H  0.85910025  0.42911595  0.91575933     0.11300
H1797       H  0.89261490  0.52282639  0.89790287     0.11000
H1798       H  0.85648359  0.52263087  0.93395724     0.07600
C1799       C  0.61129070  0.98801641  0.92489400    -0.11500
C1800       C  0.60152392  0.47119095  0.95185984     0.05600
C1801       C  0.57139679  0.45874598  0.96044194    -0.10300
C1802       C  0.55137477  0.46231700  0.94164664    -0.11900
C1803       C  0.56121932  0.47815345  0.91397061    -0.01700
C1804       C  0.59137109  0.99142744  0.90623308    -0.10800
C1805       C  0.62292809  0.46645159  0.97033071     0.05600
H1806       H  0.56316274  0.44550787  0.98110053     0.07600
H1807       H  0.52805469  0.45169445  0.94804864     0.11000
H1808       H  0.59958079  0.00426822  0.88530847     0.11300
H1809       H  0.63452400  0.99872609  0.91815670     0.07600
C1810       C  0.64408668  0.46138616  0.95544680    -0.11500
C1811       C  0.66646653  0.46015998  0.97204081    -0.10800
C1812       C  0.66962752  0.46551841  0.50483905    -0.01700
C1813       C  0.64694831  0.46802212  0.52001265    -0.11900
C1814       C  0.62361263  0.46851116  0.00249402    -0.10300
H1815       H  0.64364251  0.45885012  0.93076341     0.07600
H1816       H  0.68275578  0.45691382  0.95961738     0.11300
H1817       H  0.64707064  0.46991486  0.54475041     0.11000
H1818       H  0.60797221  0.47244067  0.51539570     0.07600
C1819       C  0.80740575  0.45902966  0.67342383    -0.11500
C1820       C  0.81529236  0.47410990  0.70172523     0.05600
C1821       C  0.79990662  0.48847354  0.71188954    -0.10300
C1822       C  0.77672465  0.48733754  0.69450984    -0.11900
C1823       C  0.76867752  0.47224417  0.66626067    -0.01700
C1824       C  0.78449351  0.45841868  0.65562061    -0.10800
C1825       C  0.83882780  0.47443007  0.72140789     0.05600
H1826       H  0.80651850  0.99958810  0.73342929     0.07600
H1827       H  0.76583739  0.99781033  0.70343020     0.11000
H1828       H  0.77865877  0.44655057  0.63395894     0.11300
H1829       H  0.81902512  0.44785062  0.66510082     0.07600
C1830       C  0.83831285  0.44776459  0.72901167    -0.11500
C1831       C  0.85820698  0.44778554  0.75086988    -0.10800
C1832       C  0.87916592  0.47455757  0.76524898    -0.01700
C1833       C  0.88056324  0.50138994  0.75632788    -0.11900
C1834       C  0.86053209  0.50128271  0.73481648    -0.10300
H1835       H  0.82168327  0.42675094  0.71904709     0.07600
H1836       H  0.85671208  0.42678436  0.75700451     0.11300
H1837       H  0.89656604  0.52248425  0.76665686     0.11000
H1838       H  0.86157634  0.52217149  0.72908487     0.07600
C1839       C  0.62463861  0.46788885  0.66916800    -0.11500
C1840       C  0.62854679  0.47457323  0.70070210     0.05600
C1841       C  0.65567204  0.48085331  0.71448650    -0.10300
C1842       C  0.67787556  0.47957385  0.69758967    -0.11900
C1843       C  0.67387077  0.47238379  0.66623068    -0.01700
C1844       C  0.64710928  0.46686764  0.65208128    -0.10800
C1845       C  0.60448471  0.47434930  0.71972280     0.05600
H1846       H  0.65798080  0.98054144  0.74012058     0.07600
H1847       H  0.69657401  0.97858252  0.71070989     0.11000
H1848       H  0.64331808  0.46129434  0.62794020     0.11300
H1849       H  0.60397274  0.46275900  0.65785625     0.07600
C1850       C  0.58610643  0.48518787  0.70849538    -0.11500
C1851       C  0.56464278  0.48611571  0.72751602    -0.10800
C1852       C  0.56152898  0.47656421  0.75810954    -0.01700
C1853       C  0.57940745  0.46515993  0.76896309    -0.11900
C1854       C  0.60029623  0.46375686  0.74999299    -0.10300
H1855       H  0.58883329  0.49364993  0.68533230     0.07600
H1856       H  0.55112879  0.49503387  0.71862882     0.11300
H1857       H  0.57715729  0.45712444  0.79228513     0.11000
H1858       H  0.61326903  0.45436030  0.75918462     0.07600
C1859       C  0.88825450  0.38611313  0.96330339    -0.11500
C1860       C  0.87095336  0.35639024  0.95308177     0.05600
C1861       C  0.87671723  0.34878668  0.92397035    -0.10300
C1862       C  0.89779789  0.37056836  0.90471674    -0.11900
C1863       C  0.91405018  0.40051273  0.91418201    -0.01700
C1864       C  0.90975828  0.40803771  0.94398939    -0.10800
C1865       C  0.84553099  0.33352245  0.97135317     0.05600
H1866       H  0.86435277  0.32597011  0.91576080     0.07600
H1867       H  0.90106676  0.36400777  0.88208953     0.11000
H1868       H  0.92207852  0.43098125  0.95182706     0.11300
H1869       H  0.88427854  0.39261454  0.98564076     0.07600
C1870       C  0.84792139  0.33038188  0.00307018    -0.11500
C1871       C  0.82377995  0.30798595  0.01949407    -0.10800
C1872       C  0.79430830  0.29101190  0.50605881    -0.01700
C1873       C  0.79442933  0.29197859  0.97289699    -0.11900
C1874       C  0.81839928  0.31425597  0.95661263    -0.10300
H1875       H  0.86859335  0.34483481  0.01501034     0.07600
H1876       H  0.82531548  0.30683305  0.54434822     0.11300
H1877       H  0.77395928  0.27758374  0.96061878     0.11000
H1878       H  0.81562108  0.31651301  0.93232905     0.07600
C1879       C  0.65943272  0.14445479  0.99689092    -0.11500
C1880       C  0.65179122  0.15116695  0.96826240     0.05600
C1881       C  0.66753151  0.18065805  0.95744517    -0.10300
C1882       C  0.69100430  0.20290162  0.97451215    -0.17900
C1883       C  0.69877544  0.19626257  0.00309711    -0.01700
C1884       C  0.68218814  0.16762163  0.51461993    -0.10800
C1885       C  0.62862676  0.12743626  0.94871049     0.05600
H1886       H  0.66221178  0.18630149  0.93531044     0.07600
H1887       H  0.70307704  0.22534840  0.96535574     0.11000
H1888       H  0.68776702  0.16166137  0.53643783     0.11300
H1889       H  0.64829446  0.12238245  0.50478743     0.07600
C1890       C  0.63039130  0.10193194  0.94123599    -0.11500
C1891       C  0.61101151  0.08150755  0.91946994    -0.10800
C1892       C  0.58927067  0.08605253  0.90497768    -0.01700
C1893       C  0.58646661  0.11073185  0.91389625    -0.11900
C1894       C  0.60610460  0.13132421  0.93533966    -0.10300
H1895       H  0.64764803  0.09852238  0.95120882     0.07600
H1896       H  0.61359621  0.06259151  0.91342225     0.11300
H1897       H  0.56972708  0.11472695  0.90356935     0.11000
H1898       H  0.60414374  0.15068462  0.94102430     0.07600
C1899       C  0.84321312  0.33403001  0.66923071    -0.11500
C1900       C  0.84601009  0.33037722  0.70077546     0.05600
C1901       C  0.82605221  0.30291825  0.71448969    -0.10300
C1902       C  0.80305028  0.28019121  0.69751068    -0.11900
C1903       C  0.79952582  0.28415150  0.66623830    -0.01700
C1904       C  0.82022376  0.31110191  0.65210076    -0.10800
C1905       C  0.86861271  0.35530302  0.71989379     0.05600
H1906       H  0.82803605  0.29905183  0.73855131     0.07600
H1907       H  0.78782274  0.25956819  0.70904856     0.11000
H1908       H  0.81813637  0.31484114  0.62802765     0.11300
H1909       H  0.85813756  0.35495231  0.65802507     0.07600
C1910       C  0.89779266  0.37449337  0.70920958    -0.11500
C1911       C  0.91897521  0.39719427  0.72815179    -0.10800
C1912       C  0.91131616  0.40082544  0.75809812    -0.01700
C1913       C  0.88201914  0.38209793  0.76839109    -0.11900
C1914       C  0.86092293  0.35982039  0.74950147    -0.10300
H1915       H  0.90443196  0.37148376  0.68654903     0.07600
H1916       H  0.94148229  0.41125524  0.71977627     0.11300
H1917       H  0.87535805  0.38464536  0.79123647     0.11000
H1918       H  0.83847923  0.34606385  0.75816726     0.07600
C1919       C  0.60374901  0.12342234  0.72696336    -0.11500
C1920       C  0.63109146  0.12455399  0.72168934     0.05600
C1921       C  0.63701583  0.10408197  0.73675270    -0.10300
C1922       C  0.61679697  0.08388598  0.75784586    -0.11900
C1923       C  0.59020131  0.08380917  0.76463080    -0.01700
C1924       C  0.58350443  0.10330166  0.74839362    -0.10800
C1925       C  0.65470723  0.14845922  0.70275726     0.05600
H1926       H  0.65775676  0.10423107  0.73273342     0.07600
H1927       H  0.62258488  0.06904368  0.76965145     0.11000
H1928       H  0.56302218  0.10354773  0.75281960     0.11300
H1929       H  0.59867595  0.13899103  0.71559786     0.07600
C1930       C  0.64882587  0.15517033  0.67323740    -0.11500
C1931       C  0.67198070  0.17728405  0.65554148    -0.10800
C1932       C  0.70115884  0.19337867  0.66741545    -0.01700
C1933       C  0.70667708  0.18692903  0.69716752    -0.11900
C1934       C  0.68380463  0.16468428  0.71451485    -0.10300
H1935       H  0.62652247  0.14296989  0.66372335     0.07600
H1936       H  0.66703276  0.18197832  0.63277036     0.11300
H1937       H  0.72885056  0.19888929  0.70702543     0.11000
H1938       H  0.68884586  0.16025713  0.73737068     0.07600
C1939       C  0.72583876  0.71619582  0.14846909     0.79500
N1940       N  0.74967613  0.73804136  0.16370600    -0.78800
C1941       C  0.77276558  0.76059634  0.14844385     0.82000
N1942       N  0.77199574  0.76112387  0.11735054    -0.78700
C1943       C  0.74843208  0.73927959  0.10169163     0.82100
N1944       N  0.72527525  0.71691142  0.11731328    -0.80400
C1945       C  0.72355385  0.72005968  0.02104654     0.79500
N1946       N  0.72451382  0.71858577  0.05209615    -0.78800
C1947       C  0.74791125  0.74029434  0.06804403     0.82000
N1948       N  0.77067497  0.76332925  0.05276916    -0.78700
C1949       C  0.77005044  0.76501585  0.02171541     0.82100
N1950       N  0.74629746  0.74336182  0.00609260    -0.80400
C1951       C  0.74381963  0.97168326  0.14761078     0.79500
N1952       N  0.74249492  0.96926714  0.11652661    -0.78800
C1953       C  0.71929587  0.96850856  0.10095625     0.82000
N1954       N  0.69728293  0.96990807  0.11661551    -0.78700
C1955       C  0.69842035  0.97235755  0.14765188     0.82100
N1956       N  0.72182626  0.97337249  0.16285897    -0.80400
C1957       C  0.74213454  0.97079327  0.02002184     0.79500
N1958       N  0.74220520  0.97001829  0.05117700    -0.78800
C1959       C  0.71857833  0.96763356  0.06726879     0.82000
N1960       N  0.69473656  0.96578436  0.05205895    -0.78700
C1961       C  0.69427404  0.96609638  0.02092552     0.82100
N1962       N  0.71814777  0.96882971  0.00518330    -0.80400
C1963       C  0.98913064  0.73864344  0.14957871     0.79500
N1964       N  0.99061734  0.74005069  0.11843901    -0.78800
C1965       C  0.99049939  0.71751339  0.10207584     0.82000
N1966       N  0.98921901  0.69377350  0.11697109    -0.78700
C1967       C  0.98802150  0.69238493  0.14804046     0.82100
N1968       N  0.98787887  0.71482679  0.16401114    -0.80400
C1969       C  0.99654646  0.74365379  0.02186808     0.79500
N1970       N  0.99891550  0.72198802  0.00663624    -0.78800
C1971       C  0.99760972  0.69851016  0.02196618     0.82000
N1972       N  0.99441709  0.69710666  0.05289113    -0.78700
C1973       C  0.99258444  0.71890801  0.06847242     0.82100
N1974       N  0.99331541  0.74203431  0.05287070    -0.80400
O1975       O  0.91834493  0.50076558  0.30047481    -0.88900
C1976       C  0.57159337  0.56628983  0.37949993     1.11200
O1977       O  0.95426066  0.97676960  0.33487788    -1.36700
O1978       O  0.55057850  0.56849112  0.29869446    -0.90400
O1979       O  0.89402307  0.94986649  0.30016934    -0.91000
O1980       O  0.95568265  0.94535559  0.27077772    -0.79800
O1981       O  0.98410089  0.53454527  0.30542953    -1.01900
C1982       C  0.54103840  0.97833329  0.27931904     1.21200
O1983       O  0.98675325  0.94706759  0.33585199    -1.36800
Mn1984     Mn  0.98563396  0.97803801  0.36860664     1.82100
O1985       O  0.51780792  0.97808120  0.27070067    -0.78900
O1986       O  0.57700431  0.54507383  0.30110934    -0.88300
C1987       C  0.54134256  0.97994297  0.39178351     1.12300
C1988       C  0.57137863  0.56419021  0.28918412     1.07000
O1989       O  0.95491559  0.94722603  0.40024680    -0.79900
O1990       O  0.51731653  0.50957284  0.33515186    -1.33600
O1991       O  0.92812413  0.91860007  0.36456865    -0.99100
C1992       C  0.98838014  0.89182024  0.29229026     1.05700
Mn1993     Mn  0.55989933  0.51293926  0.33584965     1.48600
O1994       O  0.96335471  0.88684830  0.30273056    -0.88300
Mn1995     Mn  0.91254584  0.93631676  0.33527216     1.49600
O1996       O  0.91894358  0.50210053  0.36889548    -0.92100
C1997       C  0.98371451  0.52962678  0.27807577     1.18900
C1998       C  0.89819235  0.97580707  0.37913782     1.11000
Mn1999     Mn  0.98606391  0.97739572  0.30194230     1.81000
O2000       O  0.54601542  0.98007692  0.36438222    -0.97300
Mn2001     Mn  0.95113203  0.51644290  0.33449321     1.49300
C2002       C  0.89838238  0.97457383  0.28928340     1.07500
Mn2003     Mn  0.52788371  0.94615190  0.33592354     1.49900
C2004       C  0.98834505  0.89324350  0.38169285     1.10400
O2005       O  0.92841422  0.91824910  0.30704206    -1.03100
O2006       O  0.57666363  0.54589476  0.37015520    -0.92800
C2007       C  0.93256971  0.92232556  0.27954528     1.21700
O2008       O  0.54574913  0.97924307  0.30679591    -1.03500
O2009       O  0.55159003  0.57068295  0.36774476    -0.90900
O2010       O  0.51393558  0.91414321  0.37061516    -0.90500
O2011       O  0.89398354  0.95077832  0.36934854    -0.90500
Mn2012     Mn  0.51869755  0.55131590  0.33374626     1.47900
O2013       O  0.51780453  0.97921958  0.40005216    -0.79000
C2014       C  0.93253690  0.92329148  0.39199242     1.14700
O2015       O  0.98504983  0.50706935  0.26999306    -0.77700
O2016       O  0.98552460  0.50940774  0.39946154    -0.77300
Mn2017     Mn  0.94765439  0.90436267  0.33630038     1.51100
O2018       O  0.51356363  0.91314867  0.30184154    -0.89700
O2019       O  0.98484049  0.53588802  0.36288814    -0.97200
O2020       O  0.96314671  0.88775045  0.37119303    -0.92200
C2021       C  0.98523094  0.53225244  0.39043216     1.12500
C2022       C  0.97979464  0.61979461  0.49959772    -0.11500
C2023       C  0.99293984  0.62525953  0.47037463     0.05600
C2024       C  0.50990805  0.65622772  0.45922467    -0.10300
C2025       C  0.51006048  0.67918708  0.47621938    -0.11900
C2026       C  0.99871785  0.67429911  0.00495998    -0.01700
C2027       C  0.98094699  0.64319973  0.51688305    -0.10800
C2028       C  0.98979740  0.60038141  0.45062780     0.05600
H2029       H  0.52061891  0.66148272  0.43698424     0.07600
H2030       H  0.52062749  0.70144986  0.46656806     0.11000
H2031       H  0.97761784  0.64103262  0.04063962     0.11300
H2032       H  0.96775261  0.59732316  0.50866099     0.07600
C2033       C  0.99117609  0.57587600  0.46283470    -0.11500
C2034       C  0.98916104  0.55321724  0.44351124    -0.10800
C2035       C  0.98576787  0.55476835  0.41172779    -0.01700
C2036       C  0.98359471  0.57883783  0.39978324    -0.11900
C2037       C  0.98545079  0.60122256  0.41895176    -0.10300
H2038       H  0.99454037  0.57459033  0.48715665     0.07600
H2039       H  0.99080489  0.53484924  0.45332217     0.11300
H2040       H  0.48102748  0.58108144  0.37575066     0.11000
H2041       H  0.48476939  0.62020276  0.40919539     0.07600
C2042       C  0.00943894  0.79897605  0.45932081    -0.11500
C2043       C  0.99274104  0.81205642  0.46916551     0.05600
C2044       C  0.97681248  0.80258848  0.49678340    -0.10300
C2045       C  0.97811083  0.77953140  0.01277864    -0.11900
C2046       C  0.99389649  0.76684638  0.50419132    -0.01700
C2047       C  0.00973410  0.77633350  0.47648556    -0.10800
C2048       C  0.99129181  0.83474812  0.44984133     0.05600
H2049       H  0.96190396  0.80932450  0.00122636     0.07600
H2050       H  0.96367950  0.77075766  0.03258366     0.11000
H2051       H  0.02240295  0.76625925  0.46811019     0.11300
H2052       H  0.02167063  0.80581428  0.43793589     0.07600
C2053       C  0.01763399  0.86014857  0.44033999    -0.11500
C2054       C  0.01656837  0.87991640  0.41925439    -0.10800
C2055       C  0.98911912  0.87439717  0.40689497    -0.01700
C2056       C  0.96263839  0.84961775  0.41756390    -0.11900
C2057       C  0.96373559  0.83002590  0.43893301    -0.10300
H2058       H  0.54038418  0.86516892  0.44855962     0.07600
H2059       H  0.53845421  0.89967911  0.41158355     0.11300
H2060       H  0.94111739  0.84479289  0.40868358     0.11000
H2061       H  0.94316358  0.81047863  0.44594813     0.07600
C2062       C  0.97886681  0.61629677  0.16666235    -0.11500
C2063       C  0.98417740  0.61891544  0.19846304     0.05600
C2064       C  0.48646317  0.64491619  0.21417548    -0.10300
C2065       C  0.48732240  0.66829960  0.19754255    -0.11900
C2066       C  0.98729488  0.66711038  0.16478971    -0.01700
C2067       C  0.98048193  0.64024110  0.14993420    -0.10800
C2068       C  0.98143319  0.59360369  0.21710011     0.05600
H2069       H  0.49058058  0.64786482  0.23862405     0.07600
H2070       H  0.49173025  0.68833450  0.20980672     0.11000
H2071       H  0.97583679  0.63752074  0.12556304     0.11300
H2072       H  0.97281386  0.59557428  0.15488557     0.07600
C2073       C  0.96924865  0.58900128  0.24669978    -0.11500
C2074       C  0.96949272  0.56770890  0.26595619    -0.10800
C2075       C  0.98140382  0.54998445  0.25599060    -0.01700
C2076       C  0.49250081  0.55465194  0.22629744    -0.11900
C2077       C  0.49171870  0.57618290  0.20731564    -0.10300
H2078       H  0.95991941  0.60228479  0.25525954     0.07600
H2079       H  0.96062249  0.56535179  0.28891883     0.11300
H2080       H  0.50282696  0.54219816  0.21798437     0.11000
H2081       H  0.50166220  0.58001501  0.18475859     0.07600
C2082       C  0.51522541  0.85863203  0.23046893    -0.11500
C2083       C  0.98844418  0.83013964  0.22578007     0.05600
C2084       C  0.96259553  0.82324581  0.24251264    -0.10300
C2085       C  0.96247233  0.84366711  0.26335604    -0.11900
C2086       C  0.98829209  0.87147020  0.26823620    -0.01700
C2087       C  0.51525071  0.87869969  0.25212421    -0.10800
C2088       C  0.98886464  0.80714284  0.20567305     0.05600
H2089       H  0.94245150  0.80183902  0.23966049     0.07600
H2090       H  0.94227772  0.83728294  0.27626633     0.11000
H2091       H  0.53616827  0.89855450  0.25767939     0.11300
H2092       H  0.53605813  0.86316893  0.21997213     0.07600
C2093       C  0.49711558  0.81399113  0.17318419    -0.11500
C2094       C  0.49606815  0.79103794  0.15502663    -0.10800
C2095       C  0.98867685  0.76239342  0.16818176    -0.01700
C2096       C  0.97631098  0.75560343  0.19774927    -0.11900
C2097       C  0.97630220  0.77763099  0.21618303    -0.10300
H2098       H  0.50383781  0.83553291  0.16296708     0.07600
H2099       H  0.50228910  0.79538068  0.13110294     0.11300
H2100       H  0.96648119  0.73310646  0.20671218     0.11000
H2101       H  0.96678466  0.77163135  0.23893870     0.07600
C2102       C  0.79708410  0.98737616  0.45552314    -0.11500
C2103       C  0.81535838  0.97677186  0.46711282     0.05600
C2104       C  0.81159762  0.46767426  0.49761333    -0.10300
C2105       C  0.78842044  0.46614234  0.51559749    -0.11900
C2106       C  0.76923874  0.97487206  0.50334662    -0.01700
C2107       C  0.77292223  0.98585100  0.97231021    -0.10800
C2108       C  0.83862247  0.97694452  0.44726971     0.05600
H2109       H  0.82577715  0.45972418  0.50693229     0.07600
H2110       H  0.78503165  0.45684246  0.53845615     0.11000
H2111       H  0.75879151  0.99370490  0.96264068     0.11300
H2112       H  0.80014363  0.99593674  0.43234470     0.07600
C2113       C  0.83923217  0.95050704  0.44152491    -0.11500
C2114       C  0.85901041  0.95011265  0.41983884    -0.10800
C2115       C  0.87875450  0.97627609  0.40385510    -0.01700
C2116       C  0.87894319  0.00297097  0.41079329    -0.11900
C2117       C  0.85893036  0.00322174  0.43206638    -0.10300
H2118       H  0.82362054  0.92994938  0.45292198     0.07600
H2119       H  0.85847347  0.92924623  0.41521064     0.11300
H2120       H  0.89394067  0.02356750  0.39908692     0.11000
H2121       H  0.85893116  0.02388747  0.43630122     0.07600
C2122       C  0.61247244  0.49009216  0.42590763    -0.11500
C2123       C  0.60427729  0.97487503  0.45208551     0.05600
C2124       C  0.57423757  0.96239801  0.46106120    -0.10300
C2125       C  0.55369756  0.96497626  0.44210228    -0.11900
C2126       C  0.56290323  0.97982828  0.41384308    -0.01700
C2127       C  0.59236065  0.49298722  0.40702244    -0.10800
C2128       C  0.62619550  0.97106766  0.47077956     0.05600
H2129       H  0.56646224  0.94989064  0.48220358     0.07600
H2130       H  0.53048556  0.95438243  0.44890436     0.11000
H2131       H  0.60051773  0.50594028  0.38616010     0.11300
H2132       H  0.63577632  0.50131169  0.41937198     0.07600
C2133       C  0.64746110  0.96599641  0.45613330    -0.11500
C2134       C  0.66989009  0.96502239  0.47290669    -0.10800
C2135       C  0.66859390  0.96442765  0.00402316    -0.01700
C2136       C  0.64650628  0.96796701  0.01913576    -0.11900
C2137       C  0.62704323  0.97368457  0.50291468    -0.10300
H2138       H  0.64695176  0.96304778  0.43150660     0.07600
H2139       H  0.68612610  0.96156777  0.46064605     0.11300
H2140       H  0.64728194  0.97100439  0.04375876     0.11000
H2141       H  0.60783280  0.97288905  0.01438185     0.07600
C2142       C  0.80780504  0.95972201  0.17168282    -0.11500
C2143       C  0.81536820  0.97405506  0.20037162     0.05600
C2144       C  0.79978691  0.98801914  0.21107578    -0.10300
C2145       C  0.77672976  0.98727286  0.19378103    -0.11900
C2146       C  0.76903966  0.97301031  0.16506621    -0.01700
C2147       C  0.78504787  0.95953886  0.15395661    -0.10800
C2148       C  0.83891505  0.97418917  0.21983793     0.05600
H2149       H  0.80537761  0.50098565  0.23261332     0.07600
H2150       H  0.76504886  0.49904617  0.20190983     0.11000
H2151       H  0.77950539  0.94829000  0.13195189     0.11300
H2152       H  0.81959077  0.94884467  0.16299069     0.07600
C2153       C  0.83757261  0.94734989  0.22837778    -0.11500
C2154       C  0.85741207  0.94738232  0.25032872    -0.10800
C2155       C  0.87912676  0.97433180  0.26385778    -0.01700
C2156       C  0.88139496  0.00127312  0.25385904    -0.11900
C2157       C  0.86138893  0.00115903  0.23228974    -0.10300
H2158       H  0.82032561  0.92626469  0.21912229     0.07600
H2159       H  0.85522423  0.92627228  0.25727725     0.11300
H2160       H  0.89801531  0.02248935  0.26345942     0.11000
H2161       H  0.86298697  0.02214105  0.22583323     0.07600
C2162       C  0.62510631  0.96881916  0.16806818    -0.11500
C2163       C  0.62909191  0.97565559  0.19955844     0.05600
C2164       C  0.65647334  0.98264578  0.21320428    -0.10300
C2165       C  0.67883061  0.98172412  0.19625523    -0.11900
C2166       C  0.67468641  0.97417382  0.16499494    -0.01700
C2167       C  0.64772049  0.96814198  0.15092823    -0.10800
C2168       C  0.60484517  0.97478684  0.21873147     0.05600
H2169       H  0.65961102  0.48589581  0.23775127     0.07600
H2170       H  0.69823275  0.48403103  0.20816227     0.11000
H2171       H  0.64384209  0.96231771  0.12684561     0.11300
H2172       H  0.60425786  0.96322072  0.15687295     0.07600
C2173       C  0.58611407  0.98529738  0.20779263    -0.11500
C2174       C  0.56467199  0.98590079  0.22709043    -0.10800
C2175       C  0.56192959  0.97632779  0.25765224    -0.01700
C2176       C  0.58003990  0.96508200  0.26816264    -0.11900
C2177       C  0.60092918  0.96401368  0.24891311    -0.10300
H2178       H  0.58860354  0.99382446  0.18467919     0.07600
H2179       H  0.55092435  0.99465315  0.21846008     0.11300
H2180       H  0.57802875  0.95699899  0.29143741     0.11000
H2181       H  0.61419990  0.95483859  0.25783311     0.07600
C2182       C  0.88611359  0.88651028  0.46311807    -0.11500
C2183       C  0.86864140  0.85676143  0.45299579     0.05600
C2184       C  0.87425770  0.84905106  0.42385973    -0.10300
C2185       C  0.89545872  0.87070011  0.40458944    -0.11900
C2186       C  0.91204163  0.90061945  0.41406068    -0.01700
C2187       C  0.90777050  0.90828594  0.44380317    -0.10800
C2188       C  0.84348895  0.83388246  0.47160183     0.05600
H2189       H  0.86183263  0.82622475  0.41569358     0.07600
H2190       H  0.89867462  0.86402858  0.38199823     0.11000
H2191       H  0.92030944  0.93122228  0.45162644     0.11300
H2192       H  0.88226667  0.89314040  0.48544174     0.07600
C2193       C  0.84607892  0.83147120  0.50342683    -0.11500
C2194       C  0.82233796  0.80898222  0.52019524    -0.10800
C2195       C  0.79504770  0.78992886  0.00484904    -0.01700
C2196       C  0.79292488  0.79139861  0.47374642    -0.11900
C2197       C  0.81648765  0.81378590  0.45712027    -0.10300
H2198       H  0.86663940  0.84654170  0.51521114     0.07600
H2199       H  0.82425145  0.80880804  0.04428832     0.11300
H2200       H  0.77258751  0.77632358  0.46162333     0.11000
H2201       H  0.81347979  0.81543668  0.43277026     0.07600
C2202       C  0.65902384  0.64405154  0.49805360    -0.11500
C2203       C  0.65166474  0.65089311  0.46931574     0.05600
C2204       C  0.66734290  0.68049931  0.45883392    -0.10300
C2205       C  0.69048556  0.70269385  0.47625512    -0.17900
C2206       C  0.69808498  0.69593611  0.50488498    -0.01700
C2207       C  0.68192434  0.66712303  0.01460681    -0.10800
C2208       C  0.62881927  0.62728245  0.44931965     0.05600
H2209       H  0.66227006  0.68629358  0.43665219     0.07600
H2210       H  0.70253219  0.72520150  0.46725113     0.11000
H2211       H  0.68751616  0.66132478  0.03650938     0.11300
H2212       H  0.64726610  0.62200864  0.00563608     0.07600
C2213       C  0.63054941  0.60171888  0.44198890    -0.11500
C2214       C  0.61152053  0.58148048  0.41984830    -0.10800
C2215       C  0.59015005  0.58625410  0.40482822    -0.01700
C2216       C  0.58743098  0.61103888  0.41350284    -0.11900
C2217       C  0.60670201  0.63142559  0.43531482    -0.10300
H2218       H  0.64750506  0.59810300  0.45239943     0.07600
H2219       H  0.61404054  0.56248687  0.41399465     0.11300
H2220       H  0.57099651  0.61524216  0.40276269     0.11000
H2221       H  0.60475525  0.65082824  0.44082428     0.07600
C2222       C  0.84126293  0.83470716  0.16900207    -0.11500
C2223       C  0.84402214  0.83106184  0.20056042     0.05600
C2224       C  0.82409603  0.80357064  0.21424840    -0.10300
C2225       C  0.80132802  0.78072378  0.19718973    -0.11900
C2226       C  0.79804065  0.78454806  0.16583670    -0.01700
C2227       C  0.81853524  0.81162987  0.15177788    -0.10800
C2228       C  0.86681968  0.85585689  0.21966374     0.05600
H2229       H  0.82603250  0.79966659  0.23830736     0.07600
H2230       H  0.78621639  0.76003300  0.20868833     0.11000
H2231       H  0.81657658  0.81528335  0.12765200     0.11300
H2232       H  0.85611571  0.85565831  0.15780726     0.07600
C2233       C  0.89588678  0.87513642  0.20872738    -0.11500
C2234       C  0.91738302  0.89744949  0.22776629    -0.10800
C2235       C  0.91015920  0.90057344  0.25805986    -0.01700
C2236       C  0.88096316  0.88181312  0.26859920    -0.11900
C2237       C  0.85954999  0.85996705  0.24961470    -0.10300
H2238       H  0.90222617  0.87246382  0.18579691     0.07600
H2239       H  0.93977760  0.91161906  0.21915432     0.11300
H2240       H  0.87460244  0.88401755  0.29170371     0.11000
H2241       H  0.83720438  0.84619657  0.25851197     0.07600
C2242       C  0.60364944  0.62168927  0.22520108    -0.11500
C2243       C  0.63094895  0.62277212  0.21988715     0.05600
C2244       C  0.63709800  0.60261686  0.23525561    -0.10300
C2245       C  0.61709107  0.58274040  0.25672130    -0.11900
C2246       C  0.59059169  0.58282394  0.26365688    -0.01700
C2247       C  0.58366488  0.60196616  0.24705848    -0.10800
C2248       C  0.65451923  0.64671170  0.20103794     0.05600
H2249       H  0.65791501  0.60290582  0.23127776     0.07600
H2250       H  0.62302570  0.56812447  0.26876802     0.11000
H2251       H  0.56323452  0.60229159  0.25155789     0.11300
H2252       H  0.59848284  0.63708041  0.21359089     0.07600
C2253       C  0.64935516  0.65173352  0.17057211    -0.11500
C2254       C  0.67256182  0.67405683  0.15309253    -0.10800
C2255       C  0.70102385  0.69204160  0.16609986    -0.01700
C2256       C  0.70576036  0.68715818  0.19676810    -0.11900
C2257       C  0.68286829  0.66468683  0.21391447    -0.10300
H2258       H  0.62759844  0.63810227  0.16023085     0.07600
H2259       H  0.66817588  0.67743007  0.12958231     0.11300
H2260       H  0.72733554  0.70054662  0.20755253     0.11000
H2261       H  0.68726239  0.66142245  0.23747253     0.07600
C2262       C  0.72584742  0.71797863  0.65007380     0.79500
N2263       N  0.75021154  0.73941962  0.66499939    -0.78800
C2264       C  0.77369041  0.76121803  0.64944243     0.82000
N2265       N  0.77274838  0.76133369  0.61832341    -0.78700
C2266       C  0.74861959  0.73985215  0.60296000     0.82100
N2267       N  0.72509310  0.71828082  0.61890943    -0.80400
C2268       C  0.72359981  0.71944878  0.52239379     0.79500
N2269       N  0.72445423  0.71848034  0.55351186    -0.78800
C2270       C  0.74801703  0.74029047  0.56925445     0.82000
N2271       N  0.77099348  0.76285938  0.55371019    -0.78700
C2272       C  0.77044059  0.76402081  0.52261473     0.82100
N2273       N  0.74656391  0.74231469  0.50721604    -0.80400
C2274       C  0.74420127  0.97070046  0.64871713     0.79500
N2275       N  0.74335395  0.96949437  0.61758378    -0.78800
C2276       C  0.72022207  0.96898014  0.60214210     0.82000
N2277       N  0.69776299  0.96938620  0.61800580    -0.78700
C2278       C  0.69835699  0.97048336  0.64915194     0.82100
N2279       N  0.72175164  0.97131739  0.66420308    -0.80400
C2280       C  0.74383838  0.97250005  0.52129045     0.79500
N2281       N  0.74351791  0.97112376  0.55242367    -0.78800
C2282       C  0.72004647  0.96925600  0.56842735     0.82000
N2283       N  0.69676175  0.96856745  0.55313744    -0.78700
C2284       C  0.69673204  0.96956431  0.52200872     0.82100
N2285       N  0.72041294  0.97170041  0.50640368    -0.80400
C2286       C  0.98790674  0.73871299  0.64942704     0.79500
N2287       N  0.98770435  0.73912212  0.61822126    -0.78800
C2288       C  0.98752642  0.71645812  0.60200751     0.82000
N2289       N  0.98746305  0.69339827  0.61709157    -0.78700
C2290       C  0.98763046  0.69281994  0.64818314     0.82100
N2291       N  0.98792396  0.71555879  0.66399743    -0.80400
C2292       C  0.99337213  0.74209938  0.52162571     0.79500
N2293       N  0.99552303  0.72024288  0.50651920    -0.78800
C2294       C  0.99396829  0.69671688  0.52197794     0.82000
N2295       N  0.99074128  0.69541949  0.55290168    -0.78700
C2296       C  0.98912219  0.71741010  0.56835991     0.82100
N2297       N  0.99016292  0.74060669  0.55263256    -0.80400
O2298       O  0.91840218  0.49987418  0.80080964    -0.88900
C2299       C  0.57048779  0.56606024  0.87979162     1.11200
O2300       O  0.95526304  0.97758992  0.83533918    -1.36700
O2301       O  0.54933345  0.56883569  0.79940808    -0.90400
O2302       O  0.89498086  0.95078811  0.80111557    -0.91000
O2303       O  0.95688235  0.94643242  0.77111661    -0.79800
O2304       O  0.98405415  0.53503464  0.80573340    -1.01900
C2305       C  0.54070215  0.97825532  0.77978537     1.21200
O2306       O  0.98782411  0.94797350  0.83611147    -1.36800
Mn2307     Mn  0.98660142  0.97886125  0.86895998     1.82100
O2308       O  0.51763363  0.97825251  0.77096592    -0.78900
O2309       O  0.57598292  0.54563738  0.80132938    -0.88300
C2310       C  0.54012001  0.97927361  0.89215374     1.12300
C2311       C  0.57032596  0.56489913  0.78981260     1.07000
O2312       O  0.95587116  0.94792008  0.90045336    -0.79900
O2313       O  0.51630130  0.50940725  0.83529032    -1.33600
O2314       O  0.92922173  0.91906872  0.86477160    -0.99100
C2315       C  0.98997794  0.89329131  0.79195072     1.05700
Mn2316     Mn  0.55897418  0.51307311  0.83574010     1.48600
O2317       O  0.96462999  0.88829548  0.80146668    -0.88300
Mn2318     Mn  0.91358676  0.93708229  0.83582269     1.49600
O2319       O  0.91865930  0.50064327  0.86903137    -0.92100
C2320       C  0.98409240  0.53037688  0.77835182     1.18900
C2321       C  0.89921155  0.97660929  0.87985946     1.11000
Mn2322     Mn  0.98713802  0.97836698  0.80232730     1.81000
O2323       O  0.54497785  0.97972563  0.86478233    -0.97300
Mn2324     Mn  0.95106546  0.51598359  0.83479018     1.49300
C2325       C  0.89926433  0.97545812  0.79026595     1.07500
Mn2326     Mn  0.52704700  0.94597344  0.83626119     1.49900
C2327       C  0.98962834  0.89381302  0.88130796     1.10400
O2328       O  0.92927580  0.91912124  0.80714991    -1.03100
O2329       O  0.57564018  0.54576342  0.87028964    -0.92800
C2330       C  0.93361553  0.92347443  0.77968224     1.21700
O2331       O  0.54517309  0.97914171  0.80728762    -1.03500
O2332       O  0.55034016  0.57034866  0.86826501    -0.90900
O2333       O  0.51295652  0.91398204  0.87068372    -0.90500
O2334       O  0.89514768  0.95157883  0.87015623    -0.90500
Mn2335     Mn  0.51743832  0.55111044  0.83433266     1.47900
O2336       O  0.51665130  0.97868856  0.90037781    -0.79000
C2337       C  0.93365848  0.92383683  0.89220095     1.14700
O2338       O  0.98579185  0.50804385  0.77016294    -0.77700
O2339       O  0.98591840  0.50957879  0.89960885    -0.77300
Mn2340     Mn  0.94879512  0.90512486  0.83596174     1.51100
O2341       O  0.51278310  0.91285936  0.80246790    -0.89700
O2342       O  0.98467564  0.53597642  0.86325906    -0.97200
O2343       O  0.96443247  0.88797302  0.87040073    -0.92200
C2344       C  0.98543582  0.53237577  0.89076464     1.12500
C2345       C  0.98590142  0.62221761  0.00057201    -0.11500
C2346       C  0.99682730  0.62711543  0.97038822     0.05600
C2347       C  0.50866375  0.65646357  0.95754185    -0.10300
C2348       C  0.50925143  0.67961837  0.97459623    -0.11900
C2349       C  0.99491828  0.67239547  0.50508973    -0.01700
C2350       C  0.98696264  0.64563265  0.01775078    -0.10800
C2351       C  0.99315086  0.60195258  0.95078712     0.05600
H2352       H  0.51572290  0.66062271  0.93381908     0.07600
H2353       H  0.51650080  0.70086687  0.96346179     0.11000
H2354       H  0.96996056  0.63825973  0.53898033     0.11300
H2355       H  0.97553390  0.60008956  0.01050478     0.07600
C2356       C  0.99688002  0.57865003  0.96254993    -0.11500
C2357       C  0.99372661  0.55542586  0.94336916    -0.10800
C2358       C  0.98683566  0.55521629  0.91217613    -0.01700
C2359       C  0.98254261  0.57818234  0.90072617    -0.11900
C2360       C  0.98553865  0.60112684  0.91976320    -0.10300
H2361       H  0.00285063  0.57872144  0.98635370     0.07600
H2362       H  0.99728731  0.53805314  0.95274263     0.11300
H2363       H  0.47205453  0.57576092  0.87897109     0.11000
H2364       H  0.47758685  0.61586733  0.91217982     0.07600
C2365       C  0.01453538  0.80217775  0.96103303    -0.11500
C2366       C  0.99517845  0.81287716  0.96876137     0.05600
C2367       C  0.97696799  0.80137550  0.99480253    -0.10300
C2368       C  0.97772063  0.78042680  0.51440040    -0.11900
C2369       C  0.99690939  0.76831948  0.00450816    -0.01700
C2370       C  0.01513595  0.77987318  0.97853118    -0.10800
C2371       C  0.99345558  0.83521255  0.94891168     0.05600
H2372       H  0.96374872  0.81239250  0.50469596     0.07600
H2373       H  0.96513727  0.77333389  0.53555384     0.11000
H2374       H  0.02983206  0.77158264  0.97172657     0.11300
H2375       H  0.02859644  0.81048986  0.94091722     0.07600
C2376       C  0.01966090  0.86046575  0.93882607    -0.11500
C2377       C  0.01829071  0.88010881  0.91781878    -0.10800
C2378       C  0.99065523  0.87474529  0.90613085    -0.01700
C2379       C  0.96434240  0.85006296  0.91717621    -0.11900
C2380       C  0.96574400  0.83053978  0.93844431    -0.10300
H2381       H  0.54095389  0.86526308  0.94675593     0.07600
H2382       H  0.53810431  0.89898952  0.90970926     0.11300
H2383       H  0.94269947  0.84534948  0.90878226     0.11000
H2384       H  0.94522642  0.81113426  0.94580483     0.07600
C2385       C  0.98245560  0.61842780  0.66689301    -0.11500
C2386       C  0.98618787  0.62061254  0.69892405     0.05600
C2387       C  0.49187077  0.64711544  0.71331324    -0.10300
C2388       C  0.49233828  0.67031301  0.69669960    -0.11900
C2389       C  0.98793009  0.66810206  0.66508361    -0.01700
C2390       C  0.98335540  0.64199966  0.65009607    -0.10800
C2391       C  0.98355100  0.59536137  0.71759774     0.05600
H2392       H  0.49622055  0.65013823  0.73772611     0.07600
H2393       H  0.49680099  0.69039115  0.70890904     0.11000
H2394       H  0.97988034  0.63953586  0.62553314     0.11300
H2395       H  0.97803830  0.59823752  0.65495650     0.07600
C2396       C  0.96972521  0.58962450  0.74645755    -0.11500
C2397       C  0.96941049  0.56799613  0.76563694    -0.10800
C2398       C  0.98237866  0.55105694  0.75628035    -0.01700
C2399       C  0.49447697  0.55533245  0.72702934    -0.11900
C2400       C  0.49522596  0.57742936  0.70773953    -0.10300
H2401       H  0.95939955  0.60217521  0.75447209     0.07600
H2402       H  0.95922102  0.56470808  0.78804574     0.11300
H2403       H  0.50469589  0.54253708  0.71946860     0.11000
H2404       H  0.50608984  0.58130802  0.68566492     0.07600
C2405       C  0.51504684  0.85020726  0.74231552    -0.11500
C2406       C  0.99149735  0.83289896  0.72476653     0.05600
C2407       C  0.96643336  0.83655366  0.72727211    -0.10300
C2408       C  0.96605732  0.85658899  0.74870296    -0.11900
C2409       C  0.99097957  0.87376263  0.76757904    -0.01700
C2410       C  0.51483650  0.87057294  0.76325405    -0.10800
C2411       C  0.99080239  0.80931168  0.70480798     0.05600
H2412       H  0.94673821  0.82307211  0.71350395     0.07600
H2413       H  0.94611185  0.85832776  0.75081009     0.11000
H2414       H  0.53462135  0.88393695  0.77695005     0.11300
H2415       H  0.53495275  0.84838104  0.74022069     0.07600
C2416       C  0.48067383  0.80572653  0.67370603    -0.11500
C2417       C  0.48027790  0.78320030  0.65534087    -0.10800
C2418       C  0.98905561  0.76338432  0.66796227    -0.01700
C2419       C  0.99732066  0.76617067  0.69905457    -0.11900
C2420       C  0.99836351  0.78892731  0.71715299    -0.10300
H2421       H  0.47460376  0.82114043  0.66370937     0.07600
H2422       H  0.47370927  0.78152621  0.63152730     0.11300
H2423       H  0.00318487  0.75079424  0.70952768     0.11000
H2424       H  0.00466807  0.79034622  0.74104176     0.07600
C2425       C  0.79622213  0.98764340  0.95457214    -0.11500
C2426       C  0.81460854  0.97707983  0.96600832     0.05600
C2427       C  0.80867367  0.46350829  0.99532731    -0.10300
C2428       C  0.78579615  0.46234774  0.01352777    -0.11900
C2429       C  0.76783030  0.97393148  0.00209141    -0.01700
C2430       C  0.77414371  0.98622843  0.47332811    -0.10800
C2431       C  0.83805367  0.97745990  0.94623483     0.05600
H2432       H  0.82255313  0.45510765  0.00443017     0.07600
H2433       H  0.78226421  0.45280190  0.03628068     0.11000
H2434       H  0.76015592  0.99418095  0.46350411     0.11300
H2435       H  0.79939529  0.99655705  0.93154273     0.07600
C2436       C  0.83952152  0.95132818  0.94146558    -0.11500
C2437       C  0.85983246  0.95105702  0.92040957    -0.10800
C2438       C  0.87930968  0.97705891  0.90408102    -0.01700
C2439       C  0.87855726  0.00347486  0.90992636    -0.11900
C2440       C  0.85798833  0.00358745  0.93056324    -0.10300
H2441       H  0.82422356  0.93086989  0.95321159     0.07600
H2442       H  0.85995007  0.93040014  0.91656080     0.11300
H2443       H  0.89325421  0.02392703  0.89783539     0.11000
H2444       H  0.85738191  0.02404287  0.93403791     0.07600
C2445       C  0.61136946  0.48808766  0.92480098    -0.11500
C2446       C  0.60140189  0.97082700  0.95175253     0.05600
C2447       C  0.57121351  0.95808184  0.96020796    -0.10300
C2448       C  0.55119329  0.96179020  0.94154021    -0.11900
C2449       C  0.56112760  0.97811685  0.91415240    -0.01700
C2450       C  0.59142835  0.49130626  0.90598362    -0.10800
C2451       C  0.62290056  0.96629623  0.97026609     0.05600
H2452       H  0.56296958  0.94458436  0.98070397     0.07600
H2453       H  0.52783173  0.95095102  0.94781832     0.11000
H2454       H  0.59959289  0.50386256  0.88489012     0.11300
H2455       H  0.63457062  0.49865685  0.91797653     0.07600
C2456       C  0.64403622  0.96115203  0.95545676    -0.11500
C2457       C  0.66663015  0.96033169  0.97207658    -0.10800
C2458       C  0.67156146  0.96880048  0.50489406    -0.01700
C2459       C  0.64952360  0.97253492  0.51983762    -0.11900
C2460       C  0.62384193  0.96890034  0.00238040    -0.10300
H2461       H  0.64342433  0.95829953  0.93080647     0.07600
H2462       H  0.68289028  0.95698684  0.95972196     0.11300
H2463       H  0.65009951  0.97537260  0.54448037     0.11000
H2464       H  0.61097930  0.97763594  0.51484589     0.07600
C2465       C  0.80859945  0.95935535  0.67241979    -0.11500
C2466       C  0.81648250  0.97418865  0.70083693     0.05600
C2467       C  0.80097256  0.98823770  0.71146761    -0.10300
C2468       C  0.77761575  0.98705470  0.69438657    -0.11900
C2469       C  0.76960531  0.97230458  0.66595391    -0.01700
C2470       C  0.78556344  0.95877893  0.65486557    -0.10800
C2471       C  0.84007199  0.97449964  0.72028931     0.05600
H2472       H  0.80536291  0.50001905  0.73373845     0.07600
H2473       H  0.76506252  0.49833901  0.70322067     0.11000
H2474       H  0.77974462  0.94717432  0.63305406     0.11300
H2475       H  0.82031394  0.94836248  0.66384031     0.07600
C2476       C  0.83823451  0.94767608  0.72971520    -0.11500
C2477       C  0.85794437  0.94791096  0.75190057    -0.10800
C2478       C  0.88002246  0.97503962  0.76478763    -0.01700
C2479       C  0.88276469  0.00193174  0.75394918    -0.11900
C2480       C  0.86287340  0.00162757  0.73211133    -0.10300
H2481       H  0.82067696  0.92648370  0.72099747     0.07600
H2482       H  0.85534647  0.92682379  0.75954424     0.11300
H2483       H  0.89968911  0.02326071  0.76305169     0.11000
H2484       H  0.86477547  0.02258102  0.72499203     0.07600
C2485       C  0.62567841  0.96849977  0.66945785    -0.11500
C2486       C  0.62839997  0.97259824  0.70146630     0.05600
C2487       C  0.65453696  0.97647287  0.71570811    -0.10300
C2488       C  0.67693198  0.97561318  0.69871278    -0.11900
C2489       C  0.67419344  0.97131406  0.66680466    -0.01700
C2490       C  0.64836097  0.96794691  0.65230723    -0.10800
C2491       C  0.60428583  0.97261965  0.72032262     0.05600
H2492       H  0.65988033  0.48690188  0.73849119     0.07600
H2493       H  0.69830574  0.48436585  0.70922432     0.11000
H2494       H  0.64550537  0.96458248  0.62775362     0.11300
H2495       H  0.60581087  0.96517474  0.65769190     0.07600
C2496       C  0.58694330  0.98475485  0.70927819    -0.11500
C2497       C  0.56555160  0.98602239  0.72812484    -0.10800
C2498       C  0.56152249  0.97563600  0.75845035    -0.01700
C2499       C  0.57830137  0.96292996  0.76913398    -0.11900
C2500       C  0.59903644  0.96108012  0.75027345    -0.10300
H2501       H  0.59044953  0.99402833  0.68642211     0.07600
H2502       H  0.55289123  0.99594366  0.71936520     0.11300
H2503       H  0.57532163  0.95425092  0.79224879     0.11000
H2504       H  0.61104716  0.95060582  0.75934823     0.07600
C2505       C  0.88600551  0.88806443  0.96284684    -0.11500
C2506       C  0.86862770  0.85821393  0.95302062     0.05600
C2507       C  0.87474427  0.85007741  0.92434836    -0.10300
C2508       C  0.89641424  0.87141145  0.90519222    -0.11900
C2509       C  0.91292002  0.90143099  0.91432109    -0.01700
C2510       C  0.90809572  0.90953095  0.94364084    -0.10800
C2511       C  0.84316782  0.83558581  0.97146643     0.05600
H2512       H  0.86235176  0.82715570  0.91645637     0.07600
H2513       H  0.90001472  0.86443883  0.88292484     0.11000
H2514       H  0.92051899  0.93257199  0.95116227     0.11300
H2515       H  0.88176215  0.89499712  0.98481770     0.07600
C2516       C  0.84545934  0.83314207  0.00332637    -0.11500
C2517       C  0.82163663  0.81049496  0.01986460    -0.10800
C2518       C  0.79554185  0.78851623  0.50544980    -0.01700
C2519       C  0.79263969  0.79301181  0.97314591    -0.11900
C2520       C  0.81630259  0.81553769  0.95674208    -0.10300
H2521       H  0.86590554  0.84821790  0.01528643     0.07600
H2522       H  0.82512990  0.80740134  0.54460149     0.11300
H2523       H  0.77245500  0.77789025  0.96082667     0.11000
H2524       H  0.81356108  0.81724093  0.93234274     0.07600
C2525       C  0.65901755  0.64466067  0.99698770    -0.11500
C2526       C  0.65143351  0.65141867  0.96835118     0.05600
C2527       C  0.66701464  0.68097849  0.95772014    -0.10300
C2528       C  0.69032133  0.70323534  0.97494316    -0.17900
C2529       C  0.69812516  0.69653980  0.00349430    -0.01700
C2530       C  0.68179498  0.66648356  0.51588936    -0.10800
C2531       C  0.62846312  0.62768391  0.94863490     0.05600
H2532       H  0.66172045  0.68667341  0.93559838     0.07600
H2533       H  0.70228657  0.72572438  0.96588448     0.11000
H2534       H  0.68725357  0.66063680  0.53783599     0.11300
H2535       H  0.64720997  0.62136915  0.50661416     0.07600
C2536       C  0.63043677  0.60230121  0.94110668    -0.11500
C2537       C  0.61111158  0.58180110  0.91934861    -0.10800
C2538       C  0.58921322  0.58614439  0.90492662    -0.01700
C2539       C  0.58627545  0.61075341  0.91382619    -0.11900
C2540       C  0.60585460  0.63141765  0.93524927    -0.10300
H2541       H  0.64777933  0.59902323  0.95107387     0.07600
H2542       H  0.61382570  0.56296593  0.91328565     0.11300
H2543       H  0.56943739  0.61461892  0.90353211     0.11000
H2544       H  0.60374061  0.65068615  0.94095134     0.07600
C2545       C  0.84478635  0.83369519  0.66877645    -0.11500
C2546       C  0.84590531  0.83155340  0.70083524     0.05600
C2547       C  0.82428406  0.80534276  0.71533365    -0.10300
C2548       C  0.80135978  0.78241505  0.69850035    -0.11900
C2549       C  0.79948441  0.78490534  0.66660081    -0.01700
C2550       C  0.82179272  0.81057015  0.65180323    -0.10800
C2551       C  0.86861534  0.85673293  0.71960112     0.05600
H2552       H  0.82493539  0.80260597  0.73988423     0.07600
H2553       H  0.78487802  0.76282803  0.71066131     0.11000
H2554       H  0.82106219  0.81315972  0.62723964     0.11300
H2555       H  0.86108061  0.85362834  0.65695199     0.07600
C2556       C  0.89858307  0.87370070  0.71015926    -0.11500
C2557       C  0.91985970  0.89630157  0.72911931    -0.10800
C2558       C  0.91149300  0.90191944  0.75789769    -0.01700
C2559       C  0.88148406  0.88550611  0.76686451    -0.11900
C2560       C  0.86028479  0.86346761  0.74784823    -0.10300
H2561       H  0.90571275  0.86893026  0.68859055     0.07600
H2562       H  0.94294976  0.90855893  0.72185197     0.11300
H2563       H  0.87437566  0.88964340  0.78879221     0.11000
H2564       H  0.83729176  0.85147622  0.75544232     0.07600
C2565       C  0.60343680  0.62450861  0.72785611    -0.11500
C2566       C  0.63068218  0.62556244  0.72219404     0.05600
C2567       C  0.63650915  0.60476453  0.73668013    -0.10300
C2568       C  0.61627553  0.58427686  0.75758441    -0.11900
C2569       C  0.58979022  0.58426444  0.76479244    -0.01700
C2570       C  0.58319646  0.60411691  0.74911525    -0.10800
C2571       C  0.65429295  0.64964225  0.70340642     0.05600
H2572       H  0.65718688  0.60487679  0.73235153     0.07600
H2573       H  0.62197920  0.56916270  0.76893683     0.11000
H2574       H  0.56281056  0.60444798  0.75387252     0.11300
H2575       H  0.59844309  0.64032460  0.71692847     0.07600
C2576       C  0.64848880  0.65633145  0.67384348    -0.11500
C2577       C  0.67171129  0.67836931  0.65613333    -0.10800
C2578       C  0.70087677  0.69443867  0.66804466    -0.01700
C2579       C  0.70628340  0.68811361  0.69790559    -0.11900
C2580       C  0.68334890  0.66590769  0.71525301    -0.10300
H2581       H  0.62620976  0.64410634  0.66427487     0.07600
H2582       H  0.66684213  0.68298171  0.63329155     0.11300
H2583       H  0.72843918  0.70006765  0.70780535     0.11000
H2584       H  0.68831746  0.66146743  0.73813698     0.07600
loop_ 
_geom_bond_atom_site_label_1 
_geom_bond_atom_site_label_2 
_geom_bond_distance 
_geom_bond_site_symmetry_2 
_ccdc_geom_bond_type 
C1            N2   1.357       .  A
C1            N6   1.360       .  A
C1          C317   1.483       .  S
N2            C3   1.357       .  A
C3            N4   1.357       .  A
C3          C288   1.482       .  S
N4            C5   1.360       .  A
C5            N6   1.362       .  A
C5            C9   1.469       .  S
C7            N8   1.358       .  A
C7           N12   1.359       .  A
C7          C591   1.479       .  S
N8            C9   1.359       .  A
C9           N10   1.360       .  A
N10          C11   1.359       .  A
C11          N12   1.360       .  A
C11         C257   1.486       .  S
C13          N14   1.359       .  A
C13          N18   1.357       .  A
C13         C208   1.479       .  S
N14          C15   1.361       .  A
C15          N16   1.360       .  A
C15          C21   1.469       .  S
N16          C17   1.358       .  A
C17          N18   1.357       .  A
C17         C228   1.484       .  S
C19          N20   1.359       .  A
C19          N24   1.356       .  A
C19         C491   1.480       .  S
N20          C21   1.361       .  A
C21          N22   1.361       .  A
N22          C23   1.358       .  A
C23          N24   1.357       .  A
C23         C197   1.483       .  S
C25          N26   1.360       .  A
C25          N30   1.356       .  A
C25         C157   1.481       .  S
N26          C27   1.362       .  A
C27          N28   1.361       .  A
C27          C35   1.470       .  S
N28          C29   1.358       .  A
C29          N30   1.356       .  A
C29         C128   1.483       .  S
C31          N32   1.359       .  A
C31          N36   1.359       .  A
C31         C431   1.477       .  S
N32          C33   1.359       .  A
C33          N34   1.358       .  A
C33          C88   1.482       .  S
N34          C35   1.359       .  A
C35          N36   1.359       .  A
O37         Mn63   2.084       .  S
O37         C710   1.271   1_545  A
C38         C277   1.486       .  S
C38          O71   1.272       .  A
C38          O68   1.273       .  A
O39         Mn46   2.164       .  S
O39         Mn57   2.125       .  S
O39         Mn61   2.173       .  S
O39        Mn709   2.119       .  S
O40         Mn74   2.094       .  S
O40          C50   1.272       .  A
O41         Mn57   2.098       .  S
O41          C64   1.272       .  A
O42         Mn61   2.106       .  S
O42          C69   1.253       .  A
O43         Mn63   1.952       .  S
O43       Mn1366   1.956       .  S
O43          C59   1.218       .  S
C44         C237   1.477       .  S
C44          O47   1.252       .  A
C44          O70   1.218       .  S
O45         Mn46   2.166       .  S
O45         Mn79   2.123       .  S
O45         Mn61   2.168       .  S
O45       Mn1357   2.126       .  S
Mn46         O51   2.109       .  S
Mn46       O1367   2.103       .  S
Mn46        O724   2.105       .  S
Mn46       O1990   2.169       .  S
O47       Mn1353   2.109   1_455  S
O48         Mn55   2.093       .  S
O48          C50   1.273       .  A
C49         C188   1.475       .  S
C49          O75   1.253       .  A
C49          O62   1.218       .  S
C50         C308   1.484       .  S
O51          C76   1.252       .  A
O52         Mn55   2.120       .  S
O52         Mn74   2.124       .  S
O52       Mn1984   2.167   1_445  S
O52       Mn1999   2.164   1_445  S
O53         Mn57   1.963       .  S
O53         Mn79   1.957       .  S
O53          C76   1.218       .  S
C54         C148   1.485       .  S
C54          O56   1.272       .  A
C54        O1372   1.273       .  A
Mn55         O68   2.101       .  S
Mn55        O716   1.967   1_545  S
Mn55        O708   1.959   1_545  S
O56         Mn79   2.090       .  S
Mn57         O73   2.101       .  S
Mn57         O67   1.957       .  S
O58         Mn63   2.085       .  S
O58         C706   1.271   1_545  A
C59         C137   1.476       .  S
C59          O77   1.252       .  A
C60         C177   1.482       .  S
C60          O73   1.273       .  A
C60         O704   1.271       .  A
Mn61       O1339   2.106       .  S
Mn61        O723   2.114       .  S
Mn61       O1990   2.163       .  S
O62         Mn65   1.961       .  S
O62        Mn701   1.961       .  S
Mn63        O685   2.119   1_545  S
Mn63         O81   1.958       .  S
C64         C217   1.484       .  S
C64         O683   1.271       .  A
Mn65         O72   2.087       .  S
Mn65         O80   2.099       .  S
Mn65       O1337   2.125   1_455  S
Mn65         O70   1.954       .  S
C66         C117   1.483       .  S
C66          O82   1.273       .  A
C66        O1364   1.271       .  A
O67         Mn79   1.963       .  S
O67          C69   1.219       .  S
C69         C297   1.475       .  S
O70        Mn701   1.966       .  S
O71         Mn74   2.092       .  S
O72        C1358   1.271   1_455  A
Mn74       O1335   1.955   1_455  S
Mn74       O1373   1.961   1_455  S
O75       Mn1338   2.107   1_455  S
C76         C248   1.478       .  S
O77        Mn707   2.110   1_545  S
O78        Mn692   2.105   1_545  S
O78          C83   1.253       .  A
Mn79         O82   2.098       .  S
O80        C1346   1.273   1_455  A
O81       Mn1366   1.957       .  S
O81          C83   1.218       .  S
C83          C97   1.477       .  S
C84          C85   1.406       .  A
C84          C89   1.400       .  A
C84          H94   1.083       .  S
C85          C90   1.486       .  S
C85        C1378   1.407       .  A
C86          C87   1.394       .  A
C86        C1377   1.406   1_455  A
C86          H91   1.083       .  S
C87        C1703   1.404   1_455  A
C87          H92   1.083       .  S
C88        C1702   1.404   1_554  A
C88         C412   1.407       .  A
C89         C411   1.406       .  A
C89         H416   1.083       .  S
C90          C95   1.409       .  A
C90          C99   1.404       .  A
H93         C412   1.083       .  S
C95          C96   1.403       .  A
C95         H100   1.082       .  S
C96          C97   1.405       .  A
C96         H101   1.083       .  S
C97          C98   1.405       .  A
C98          C99   1.391       .  A
C98        H1394   1.083       .  S
C99        H1395   1.083       .  S
H102       C1390   1.083       .  S
H103       C1391   1.083       .  S
C104        C105   1.406       .  A
C104        C109   1.396       .  A
C104        H114   1.083       .  S
C105        C110   1.483       .  S
C105        C106   1.405       .  A
C106        C430   1.400       .  A
C106        H434   1.083       .  S
C107        C429   1.400   1_554  A
C107        C431   1.405       .  A
C107        H112   1.083       .  S
C108        C354   1.474       .  S
C108        C109   1.402       .  A
C108        C430   1.405       .  A
C109        H113   1.084       .  S
C110        C115   1.404       .  A
C110        C119   1.405       .  A
H111        C429   1.083   1_554  S
C115        C116   1.396       .  A
C115       H1412   1.083       .  S
C116        C117   1.407       .  A
C116       H1413   1.083       .  S
C117        C118   1.407       .  A
C118        C119   1.400       .  A
C118        H122   1.083       .  S
C119        H123   1.083       .  S
H120       C1407   1.083       .  S
H121       C1408   1.083       .  S
C124        C125   1.407       .  A
C124        C129   1.404       .  A
C124        H134   1.083       .  S
C125        C130   1.488       .  S
C125       C1418   1.405       .  A
C126        C127   1.393       .  A
C126       C1417   1.406       .  A
C126        H131   1.083       .  S
C127       C1420   1.405       .  A
C127        H132   1.083       .  S
C128        C129   1.408       .  A
C128       C1419   1.404       .  A
C129        H133   1.083       .  S
C130        C135   1.405       .  A
C130       C1431   1.409       .  A
C135        C136   1.391       .  A
C135        H140   1.083       .  S
C136        C137   1.403       .  A
C136        H141   1.083       .  S
C137       C1430   1.404       .  A
C138        C139   1.406       .  A
C138       C1429   1.405       .  A
C138        H142   1.083   1_655  S
C139       C1422   1.410       .  A
C139        H143   1.082   1_655  S
C144        C149   1.401       .  A
C144       C1437   1.405   1_455  A
C144        H154   1.083       .  S
C145        C150   1.480       .  S
C145        C146   1.403       .  A
C145       C1436   1.404       .  A
C146        C147   1.396       .  A
C146        H151   1.083       .  S
C147        C148   1.407       .  A
C147        H152   1.083       .  S
C148       C1441   1.409       .  A
C149       C1440   1.408   1_455  A
C149        H153   1.082       .  S
C150        C159   1.402       .  A
C150       C1447   1.405       .  A
C155        C156   1.404   1_655  A
C155       C1442   1.407       .  A
C155        H160   1.083   1_655  S
C156       C1449   1.406   1_455  A
C156        H161   1.083       .  S
C157        C158   1.406       .  A
C157       C1448   1.407       .  A
C158        C159   1.394       .  A
C158        H162   1.084       .  S
C159        H163   1.083       .  S
C164        C165   1.403       .  A
C164        C492   1.395       .  A
C164        H174   1.083       .  S
C165        C170   1.480       .  S
C165        C812   1.405       .  A
C166        C167   1.402       .  A
C166        C811   1.405       .  A
C166        H171   1.083       .  S
C167        C814   1.406       .  A
C167        H172   1.083       .  S
C168        C342   1.481       .  S
C168        C813   1.406       .  A
C168        C492   1.406       .  A
C169        C487   1.395       .  A
C169        C491   1.406   1_556  A
C169        H173   1.083       .  S
C170        C175   1.405       .  A
C170        C179   1.402       .  A
C175        C176   1.401       .  A
C175        H180   1.083       .  S
C176        C177   1.407       .  A
C176        H181   1.083       .  S
C177        C178   1.407       .  A
C178        C179   1.396       .  A
C178        H182   1.083       .  S
C179        H183   1.083       .  S
C184        C189   1.392       .  A
C184        C831   1.405       .  A
C184        H194   1.083       .  S
C185        C190   1.486       .  S
C185        C186   1.408       .  A
C185        C830   1.405       .  A
C186        C187   1.404       .  A
C186        H191   1.083       .  S
C187        C188   1.405       .  A
C187        H192   1.083       .  S
C188        C835   1.402       .  A
C189        C834   1.402       .  A
C189        H193   1.084   1_565  S
C190        C195   1.405       .  A
C190        C199   1.406       .  A
C195        C196   1.394       .  A
C195        H200   1.083       .  S
C196        C520   1.405       .  A
C196        H201   1.083       .  S
C197        C198   1.408       .  A
C197        C519   1.405   1_554  A
C198        C522   1.403       .  A
C198        H202   1.083       .  S
C199        C521   1.403       .  A
C199        H526   1.083       .  S
H203        C522   1.083       .  S
C204        C205   1.405       .  A
C204        C209   1.403       .  A
C204        H214   1.083       .  S
C205        C210   1.480       .  S
C205        C206   1.403       .  A
C206        C207   1.394       .  A
C206        H857   1.083       .  S
C207        C208   1.404       .  A
C207        H858   1.083       .  S
C208        C209   1.407       .  A
C209        H213   1.083       .  S
C210        C215   1.404       .  A
C210        C219   1.403       .  A
H211        C852   1.083       .  S
H212        C853   1.083       .  S
C215        C216   1.401       .  A
C215        H220   1.083       .  S
C216        C217   1.408       .  A
C216        H221   1.083       .  S
C217        C218   1.407       .  A
C218        C219   1.396       .  A
C218        H222   1.083       .  S
C219        H223   1.083       .  S
C224        C225   1.407       .  A
C224        C229   1.403       .  A
C224        H234   1.083       .  S
C225        C230   1.490       .  S
C225        C226   1.406       .  A
C226        C227   1.393       .  A
C226        H877   1.083       .  S
C227        C228   1.404       .  A
C227        H878   1.083       .  S
C228        C229   1.408       .  A
C229        H233   1.083       .  S
C230        C235   1.410       .  A
C230        C239   1.405       .  A
H231        C872   1.083       .  S
H232        C873   1.083       .  S
C235        C236   1.405       .  A
C235        H240   1.082       .  S
C236        C237   1.404       .  A
C236        H241   1.083       .  S
C237        C238   1.403       .  A
C238        C239   1.391       .  A
C238        H242   1.083       .  S
C239        H243   1.083       .  S
C244        C245   1.409       .  A
C244        C249   1.406       .  A
C244        H254   1.083       .  S
C245        C250   1.487       .  S
C245        C246   1.404       .  A
C246        C247   1.391       .  A
C246        H251   1.083       .  S
C247        C248   1.403       .  A
C247        H252   1.083       .  S
C248        C249   1.405       .  A
C249        H253   1.083       .  S
C250        C255   1.405       .  A
C250        C259   1.405       .  A
C255        C256   1.404       .  A
C255        H260   1.083       .  S
C256        C580   1.409       .  A
C256        H584   1.083       .  S
C257        C579   1.409       .  A
C257        C581   1.404   1_554  A
C258        C259   1.394       .  A
C258        C580   1.404       .  A
C258        H262   1.083       .  S
C259        H263   1.083       .  S
H261        C579   1.083       .  S
C264        C265   1.405       .  A
C264        C592   1.402       .  A
C264        H597   1.083       .  S
C265        C270   1.483       .  S
C265        C266   1.404       .  A
C266        C267   1.397       .  A
C266        H271   1.083       .  S
C267        C268   1.405       .  A
C267        H272   1.083       .  S
C268        C330   1.482       .  S
C268        C592   1.407       .  A
C269        C587   1.401   1_554  A
C269        C591   1.406       .  A
C269        H273   1.083       .  S
C270        C275   1.405       .  A
C270        C279   1.404       .  A
H274        C587   1.083   1_554  S
C275        C276   1.401       .  A
C275        H280   1.083       .  S
C276        C277   1.408       .  A
C276        H281   1.083       .  S
C277        C278   1.408       .  A
C278        C279   1.398       .  A
C278        H282   1.083       .  S
C279        H283   1.083       .  S
C284        C285   1.406       .  A
C284        C289   1.402       .  A
C284        H294   1.083       .  S
C285        C290   1.487       .  S
C285        C286   1.406       .  A
C286        C287   1.393       .  A
C286        H291   1.083       .  S
C287        C288   1.404       .  A
C287        H292   1.083       .  S
C288        C289   1.407       .  A
C289        H293   1.083       .  S
C290        C295   1.409       .  A
C290        C299   1.404       .  A
C295        C296   1.404       .  A
C295        H300   1.083       .  S
C296        C297   1.404       .  A
C296        H301   1.083       .  S
C297        C298   1.403       .  A
C298        C299   1.391       .  A
C298        H302   1.083       .  S
C299        H303   1.083       .  S
C304        C305   1.404       .  A
C304        C309   1.403       .  A
C304        H314   1.083       .  S
C305        C310   1.480       .  S
C305        C306   1.403       .  A
C306        C307   1.394       .  A
C306        H311   1.083       .  S
C307        C308   1.405       .  A
C307        H312   1.083       .  S
C308        C309   1.410       .  A
C309        H313   1.083       .  S
C310        C315   1.405       .  A
C310        C319   1.402       .  A
C315        C316   1.405       .  A
C315        H320   1.083       .  S
C316        C317   1.408       .  A
C316        H321   1.083       .  S
C317        C318   1.405       .  A
C318        C319   1.393       .  A
C318        H322   1.083       .  S
C319        H323   1.084       .  S
C324        N325   1.357       .  A
C324        N329   1.360       .  A
C324        C640   1.482       .  S
N325        C326   1.356       .  A
C326        N327   1.358       .  A
C326        C611   1.482       .  S
N327        C328   1.360       .  A
C328        N329   1.362       .  A
C328        C332   1.469       .  S
C330        N331   1.359       .  A
C330        N335   1.359       .  A
N331        C332   1.360       .  A
C332        N333   1.360       .  A
N333        C334   1.358       .  A
C334        N335   1.360       .  A
C334        C580   1.486       .  S
C336        N337   1.359       .  A
C336        N341   1.357       .  A
C336        C531   1.480       .  S
N337        C338   1.361       .  A
C338        N339   1.361       .  A
C338        C344   1.470       .  S
N339        C340   1.359       .  A
C340        N341   1.358       .  A
C340        C551   1.485       .  S
C342        N343   1.359       .  A
C342        N347   1.357       .  A
N343        C344   1.361       .  A
C344        N345   1.361       .  A
N345        C346   1.359       .  A
C346        N347   1.358       .  A
C346        C520   1.484       .  S
C348        N349   1.360       .  A
C348        N353   1.357       .  A
C348        C480   1.482       .  S
N349        C350   1.362       .  A
C350        N351   1.360       .  A
C350        C358   1.469       .  S
N351        C352   1.357       .  A
C352        N353   1.356       .  A
C352        C451   1.481       .  S
C354        N355   1.358       .  A
C354        N359   1.359       .  A
N355        C356   1.358       .  A
C356        N357   1.358       .  A
C356        C411   1.479       .  S
N357        C358   1.359       .  A
C358        N359   1.359       .  A
O360       Mn386   2.082       .  S
O360       C1033   1.270   1_545  A
C361        C600   1.485       .  S
C361        O394   1.271       .  A
C361        O391   1.273       .  A
O362       Mn369   2.163       .  S
O362       Mn380   2.127       .  S
O362       Mn384   2.173       .  S
O362      Mn1032   2.119       .  S
O363       Mn397   2.096       .  S
O363        C373   1.272       .  A
O364       Mn380   2.104       .  S
O364        C387   1.273       .  A
O365       Mn384   2.107       .  S
O365        C392   1.254       .  A
O366      Mn1689   1.957       .  S
O366       Mn386   1.951       .  S
O366        C382   1.218       .  S
C367        C560   1.479       .  S
C367        O370   1.253       .  A
C367        O393   1.218       .  S
O368      Mn1680   2.125       .  S
O368       Mn369   2.167       .  S
O368       Mn402   2.123       .  S
O368       Mn384   2.166       .  S
Mn369      O1690   2.100       .  S
Mn369       O374   2.111       .  S
Mn369      O1047   2.106       .  S
Mn369      O2313   2.169       .  S
O370      Mn1676   2.111   1_455  S
O371       Mn378   2.091       .  S
O371        C373   1.272       .  A
C372        C511   1.474       .  S
C372        O398   1.251       .  A
C372        O385   1.219       .  S
C373        C631   1.484       .  S
O374        C399   1.252       .  A
O375      Mn2307   2.168   1_445  S
O375       Mn378   2.119       .  S
O375       Mn397   2.124       .  S
O375      Mn2322   2.163   1_445  S
O376       Mn380   1.966       .  S
O376       Mn402   1.957       .  S
O376        C399   1.218       .  S
C377        C471   1.485       .  S
C377       O1695   1.273       .  A
C377        O379   1.272       .  A
Mn378       O391   2.097       .  S
Mn378      O1039   1.967   1_545  S
Mn378      O1031   1.958   1_545  S
O379       Mn402   2.089       .  S
Mn380       O396   2.100       .  S
Mn380       O390   1.957       .  S
O381       Mn386   2.084       .  S
O381       C1029   1.271   1_545  A
C382        C460   1.476       .  S
C382        O400   1.252       .  A
C383        C500   1.483       .  S
C383       O1027   1.271       .  A
C383        O396   1.273       .  A
Mn384      O1662   2.113       .  S
Mn384      O1046   2.106       .  S
Mn384      O2313   2.164       .  S
O385      Mn1024   1.959       .  S
O385       Mn388   1.960       .  S
Mn386      O1008   2.120   1_545  S
Mn386       O404   1.957       .  S
C387        C540   1.485       .  S
C387       O1006   1.270       .  A
Mn388       O395   2.080       .  S
Mn388       O403   2.092       .  S
Mn388      O1660   2.125   1_455  S
Mn388       O393   1.953       .  S
C389        C440   1.484       .  S
C389       O1687   1.270       .  A
C389        O405   1.273       .  A
O390       Mn402   1.964       .  S
O390        C392   1.219       .  S
C392        C620   1.475       .  S
O393      Mn1024   1.965       .  S
O394       Mn397   2.091       .  S
O395       C1681   1.270   1_455  A
Mn397      O1658   1.951   1_455  S
Mn397      O1696   1.958   1_455  S
O398      Mn1661   2.101   1_455  S
C399        C571   1.479       .  S
O400      Mn1030   2.107   1_545  S
O401      Mn1015   2.107   1_545  S
O401        C406   1.253       .  A
Mn402       O405   2.102       .  S
O403       C1669   1.272   1_455  A
O404      Mn1689   1.956       .  S
O404        C406   1.218       .  S
C406        C420   1.478       .  S
C407        C408   1.405   1_554  A
C407        C412   1.400       .  A
C407        H417   1.083       .  S
C408        C413   1.487       .  S
C408       C1701   1.407       .  A
C409       C1700   1.406   1_455  A
C409        C410   1.395       .  A
C409        H414   1.083       .  S
C410       C1380   1.404   1_556  A
C410        H415   1.083       .  S
C411       C1379   1.403       .  A
C413        C418   1.409       .  A
C413        C422   1.404       .  A
C418        C419   1.403       .  A
C418        H423   1.083       .  S
C419        C420   1.405       .  A
C419        H424   1.083       .  S
C420        C421   1.405       .  A
C421        C422   1.392       .  A
C421       H1717   1.083       .  S
C422       H1718   1.083       .  S
H425       C1713   1.083       .  S
H426       C1714   1.083       .  S
C427        C428   1.405       .  A
C427        C432   1.397       .  A
C427        H437   1.083       .  S
C428        C433   1.481       .  S
C428        C429   1.404       .  A
C430        H435   1.083       .  S
C431        C432   1.404   1_554  A
C432        H436   1.084       .  S
C433        C438   1.403       .  A
C433        C442   1.405       .  A
C438        C439   1.396       .  A
C438       H1735   1.083       .  S
C439        C440   1.408       .  A
C439       H1736   1.083       .  S
C440        C441   1.407       .  A
C441        C442   1.400       .  A
C441        H445   1.083       .  S
C442        H446   1.083       .  S
H443       C1730   1.083       .  S
H444       C1731   1.083       .  S
C447        C448   1.407       .  A
C447        C452   1.403       .  A
C447        H457   1.083       .  S
C448        C453   1.486       .  S
C448       C1741   1.405       .  A
C449       C1740   1.406       .  A
C449        C450   1.393       .  A
C449        H454   1.083       .  S
C450       C1743   1.405       .  A
C450        H455   1.083       .  S
C451       C1742   1.404       .  A
C451        C452   1.407       .  A
C452        H456   1.083       .  S
C453        C458   1.404       .  A
C453       C1754   1.408       .  A
C458        C459   1.391       .  A
C458        H463   1.083       .  S
C459        C460   1.404       .  A
C459        H464   1.083       .  S
C460       C1753   1.404       .  A
C461       C1752   1.404       .  A
C461        C462   1.404       .  A
C461        H465   1.083   1_655  S
C462       C1745   1.410       .  A
C462        H466   1.082   1_655  S
C467       C1760   1.405   1_455  A
C467        C472   1.396       .  A
C467        H477   1.083       .  S
C468        C473   1.485       .  S
C468       C1759   1.405       .  A
C468        C469   1.404       .  A
C469        C470   1.396       .  A
C469        H474   1.083       .  S
C470        C471   1.407       .  A
C470        H475   1.083       .  S
C471       C1764   1.408       .  A
C472       C1763   1.406   1_455  A
C472        H476   1.083       .  S
C473       C1770   1.406       .  A
C473        C482   1.404       .  A
C478       C1765   1.407       .  A
C478        C479   1.403       .  A
C478        H483   1.083       .  S
C479       C1772   1.405       .  A
C479        H484   1.083       .  S
C480       C1771   1.407       .  A
C480        C481   1.405       .  A
C481        C482   1.394       .  A
C481        H485   1.084       .  S
C482        H486   1.083       .  S
C487        C488   1.403       .  A
C487        H497   1.084       .  S
C488        C493   1.479       .  S
C488       C1135   1.405       .  A
C489       C1134   1.405       .  A
C489        C490   1.401   1_556  A
C489        H494   1.083   1_556  S
C490       C1137   1.406       .  A
C490        H495   1.083       .  S
C491       C1136   1.406       .  A
C492        H496   1.083       .  S
C493        C498   1.405       .  A
C493        C502   1.402       .  A
C498        C499   1.401       .  A
C498        H503   1.083       .  S
C499        C500   1.407       .  A
C499        H504   1.083       .  S
C500        C501   1.407       .  A
C501        C502   1.395       .  A
C501        H505   1.083       .  S
C502        H506   1.084       .  S
C507       C1154   1.405       .  A
C507        C512   1.391       .  A
C507        H517   1.083   1_565  S
C508        C513   1.485       .  S
C508       C1153   1.405       .  A
C508        C509   1.408       .  A
C509        C510   1.403       .  A
C509        H514   1.083       .  S
C510        C511   1.405       .  A
C510        H515   1.083       .  S
C511       C1158   1.402       .  A
C512       C1157   1.402       .  A
C512        H516   1.084   1_565  S
C513        C518   1.405       .  A
C513        C522   1.406   1_556  A
C518        C519   1.393       .  A
C518        H523   1.083       .  S
C519        H524   1.083       .  S
C520        C521   1.408       .  A
C521        H525   1.083       .  S
C527        C528   1.406       .  A
C527        C532   1.403       .  A
C527        H537   1.083       .  S
C528        C533   1.482       .  S
C528        C529   1.403       .  A
C529        C530   1.394       .  A
C529       H1180   1.083       .  S
C530        C531   1.404       .  A
C530       H1181   1.083       .  S
C531        C532   1.406       .  A
C532        H536   1.083       .  S
C533        C538   1.405       .  A
C533        C542   1.403       .  A
H534       C1175   1.083   1_545  S
H535       C1176   1.083   1_545  S
C538        C539   1.402       .  A
C538        H543   1.083       .  S
C539        C540   1.408       .  A
C539        H544   1.083       .  S
C540        C541   1.408       .  A
C541        C542   1.395       .  A
C541        H545   1.083       .  S
C542        H546   1.083       .  S
C547        C548   1.407       .  A
C547        C552   1.404       .  A
C547        H557   1.082       .  S
C548        C553   1.492       .  S
C548        C549   1.407       .  A
C549        C550   1.394       .  A
C549       H1200   1.083       .  S
C550        C551   1.404       .  A
C550       H1201   1.083       .  S
C551        C552   1.408       .  A
C552        H556   1.083       .  S
C553        C558   1.410       .  A
C553        C562   1.405       .  A
H554       C1195   1.083       .  S
H555       C1196   1.083       .  S
C558        C559   1.405       .  A
C558        H563   1.082       .  S
C559        C560   1.405       .  A
C559        H564   1.083       .  S
C560        C561   1.404       .  A
C561        C562   1.391       .  A
C561        H565   1.083       .  S
C562        H566   1.083       .  S
C567        C568   1.409       .  A
C567        C572   1.406       .  A
C567        H577   1.083       .  S
C568        C573   1.487       .  S
C568        C569   1.404       .  A
C569        C570   1.392       .  A
C569        H574   1.083       .  S
C570        C571   1.404       .  A
C570        H575   1.083       .  S
C571        C572   1.405       .  A
C572        H576   1.083       .  S
C573        C578   1.406   1_556  A
C573        C582   1.405       .  A
C578        C579   1.404       .  A
C578        H583   1.083       .  S
C581        C582   1.394       .  A
C581        H585   1.083       .  S
C582        H586   1.083       .  S
C587        C588   1.405       .  A
C588        C593   1.480       .  S
C588        C589   1.404       .  A
C589        C590   1.396       .  A
C589        H594   1.083       .  S
C590        C591   1.404   1_556  A
C590        H595   1.083       .  S
C592        H596   1.083       .  S
C593        C598   1.404       .  A
C593        C602   1.403       .  A
C598        C599   1.399       .  A
C598        H603   1.083       .  S
C599        C600   1.408       .  A
C599        H604   1.083       .  S
C600        C601   1.408       .  A
C601        C602   1.398       .  A
C601        H605   1.083       .  S
C602        H606   1.083       .  S
C607        C608   1.406       .  A
C607        C612   1.402       .  A
C607        H617   1.083       .  S
C608        C613   1.487       .  S
C608        C609   1.406       .  A
C609        C610   1.393       .  A
C609        H614   1.083       .  S
C610        C611   1.405       .  A
C610        H615   1.083       .  S
C611        C612   1.407       .  A
C612        H616   1.083       .  S
C613        C618   1.409       .  A
C613        C622   1.405       .  A
C618        C619   1.403       .  A
C618        H623   1.083       .  S
C619        C620   1.404       .  A
C619        H624   1.083       .  S
C620        C621   1.404       .  A
C621        C622   1.391       .  A
C621        H625   1.083       .  S
C622        H626   1.083       .  S
C627        C628   1.404       .  A
C627        C632   1.403       .  A
C627        H637   1.083       .  S
C628        C633   1.480       .  S
C628        C629   1.403       .  A
C629        C630   1.394       .  A
C629        H634   1.083       .  S
C630        C631   1.405       .  A
C630        H635   1.083       .  S
C631        C632   1.409       .  A
C632        H636   1.083       .  S
C633        C638   1.405       .  A
C633        C642   1.402       .  A
C638        C639   1.405       .  A
C638        H643   1.083       .  S
C639        C640   1.408       .  A
C639        H644   1.083       .  S
C640        C641   1.405       .  A
C641        C642   1.392       .  A
C641        H645   1.083       .  S
C642        H646   1.084       .  S
C647        N648   1.358       .  A
C647        N652   1.361       .  A
C647        C963   1.483       .  S
N648        C649   1.356       .  A
C649        N650   1.357       .  A
C649        C934   1.481       .  S
N650        C651   1.359       .  A
C651        N652   1.362       .  A
C651        C655   1.470       .  S
C653        N654   1.359       .  A
C653        N658   1.359       .  A
C653       C1237   1.481       .  S
N654        C655   1.360       .  A
C655        N656   1.360       .  A
N656        C657   1.358       .  A
C657        N658   1.360       .  A
C657        C903   1.486       .  S
C659        N660   1.360       .  A
C659        N664   1.357       .  A
C659        C854   1.480       .  S
N660        C661   1.362       .  A
C661        N662   1.361       .  A
C661        C667   1.470       .  S
N662        C663   1.358       .  A
C663        N664   1.357       .  A
C663        C874   1.484       .  S
C665        N666   1.360       .  A
C665        N670   1.357       .  A
C665       C1137   1.481       .  S
N666        C667   1.361       .  A
C667        N668   1.360       .  A
N668        C669   1.358       .  A
C669        N670   1.358       .  A
C669        C843   1.483       .  S
C671        N672   1.360       .  A
C671        N676   1.356       .  A
C671        C803   1.483       .  S
N672        C673   1.362       .  A
C673        N674   1.361       .  A
C673        C681   1.470       .  S
N674        C675   1.358       .  A
C675        N676   1.355       .  A
C675        C774   1.483       .  S
C677        N678   1.358       .  A
C677        N682   1.359       .  A
C677       C1077   1.475       .  S
N678        C679   1.359       .  A
C679        N680   1.358       .  A
C679        C734   1.484       .  S
N680        C681   1.359       .  A
C681        N682   1.360       .  A
O683       Mn709   2.088       .  S
C684        C923   1.488       .  S
C684        O717   1.272       .  A
C684        O714   1.273       .  A
O685       Mn692   2.164       .  S
O685       Mn703   2.125       .  S
O685       Mn707   2.173       .  S
O686       Mn720   2.091       .  S
O686        C696   1.271       .  A
O687       Mn703   2.101       .  S
O687        C710   1.273       .  A
O688       Mn707   2.111       .  S
O688        C715   1.254       .  A
O689      Mn2012   1.956       .  S
O689       Mn709   1.947       .  S
O689        C705   1.216       .  S
C690        C883   1.477       .  S
C690        O693   1.252       .  A
C690        O716   1.219       .  S
O691      Mn2003   2.126       .  S
O691       Mn692   2.166       .  S
O691       Mn725   2.122       .  S
O691       Mn707   2.167       .  S
Mn692      O2013   2.104       .  S
Mn692       O697   2.109       .  S
Mn692      O1344   2.169   1_565  S
O693      Mn1999   2.107   1_455  S
O694       Mn701   2.096       .  S
O694        C696   1.273       .  A
C695        C834   1.475       .  S
C695        O721   1.252       .  A
C695        O708   1.218       .  S
C696        C954   1.484       .  S
O697        C722   1.252       .  A
O698      Mn1338   2.168   1_455  S
O698       Mn701   2.120       .  S
O698       Mn720   2.122       .  S
O698      Mn1353   2.163   1_455  S
O699       Mn703   1.967       .  S
O699       Mn725   1.957       .  S
O699        C722   1.218       .  S
C700        C794   1.483       .  S
C700       O2018   1.272       .  A
C700        O702   1.272       .  A
Mn701       O714   2.101       .  S
O702       Mn725   2.088       .  S
Mn703       O719   2.101       .  S
Mn703       O713   1.956       .  S
O704       Mn709   2.083       .  S
C705        C783   1.477       .  S
C705        O723   1.253       .  A
C706        C823   1.484       .  S
C706        O719   1.274       .  A
Mn707      O1985   2.107       .  S
Mn707      O1344   2.165   1_565  S
O708       Mn711   1.960       .  S
Mn709       O727   1.960       .  S
C710        C863   1.484       .  S
Mn711       O718   2.090       .  S
Mn711       O726   2.101       .  S
Mn711      O1983   2.126   1_455  S
Mn711       O716   1.955       .  S
C712        C763   1.482       .  S
C712       O2010   1.271       .  A
C712        O728   1.272       .  A
O713       Mn725   1.957       .  S
O713        C715   1.218       .  S
C715        C943   1.477       .  S
O717       Mn720   2.094       .  S
O718       C2004   1.272   1_455  A
Mn720      O1981   1.958   1_455  S
Mn720      O2019   1.957   1_455  S
O721      Mn1984   2.106   1_455  S
C722        C894   1.478       .  S
O724        C729   1.253       .  A
Mn725       O728   2.092       .  S
O726       C1992   1.273   1_455  A
O727      Mn2012   1.958       .  S
O727        C729   1.218       .  S
C729        C743   1.478       .  S
C730        C731   1.406       .  A
C730        C735   1.400       .  A
C730        H740   1.083       .  S
C731        C736   1.487       .  S
C731       C2024   1.407       .  A
C732       C2023   1.407   1_455  A
C732        C733   1.394       .  A
C732        H737   1.083       .  S
C733       C2349   1.402   1_455  A
C733        H738   1.083       .  S
C734       C2348   1.404   1_554  A
C734       C1058   1.408       .  A
C735       C1057   1.406       .  A
C735       H1062   1.083       .  S
C736        C741   1.409       .  A
C736        C745   1.404       .  A
H739       C1058   1.083       .  S
C741        C742   1.403       .  A
C741        H746   1.082       .  S
C742        C743   1.405       .  A
C742        H747   1.083       .  S
C743        C744   1.405       .  A
C744        C745   1.391       .  A
C744       H2040   1.083       .  S
C745       H2041   1.083       .  S
H748       C2036   1.083       .  S
H749       C2037   1.083       .  S
C750        C751   1.403       .  A
C750        C755   1.396       .  A
C750        H760   1.083       .  S
C751        C756   1.476       .  S
C751        C752   1.403       .  A
C752       C1076   1.400       .  A
C752       H1080   1.083       .  S
C753       C1075   1.400   1_554  A
C753       C1077   1.404       .  A
C753        H758   1.083       .  S
C754       C1000   1.477       .  S
C754       C1076   1.406       .  A
C754        C755   1.405       .  A
C755        H759   1.084       .  S
C756        C761   1.402       .  A
C756        C765   1.403       .  A
H757       C1075   1.083       .  S
C761        C762   1.397       .  A
C761       H2058   1.083       .  S
C762        C763   1.407       .  A
C762       H2059   1.083       .  S
C763        C764   1.408       .  A
C764        C765   1.398       .  A
C764        H768   1.083       .  S
C765        H769   1.083       .  S
H766       C2053   1.083       .  S
H767       C2054   1.083       .  S
C770        C771   1.407       .  A
C770        C775   1.403       .  A
C770        H780   1.082       .  S
C771        C776   1.489       .  S
C771       C2064   1.406       .  A
C772       C2063   1.405       .  A
C772        C773   1.391       .  A
C772        H777   1.083       .  S
C773       C2066   1.404       .  A
C773        H778   1.083       .  S
C774       C2065   1.405       .  A
C774        C775   1.407       .  A
C775        H779   1.083       .  S
C776        C781   1.404       .  A
C776       C2077   1.410       .  A
C781        C782   1.391       .  A
C781        H786   1.083       .  S
C782        C783   1.404       .  A
C782        H787   1.083       .  S
C783       C2076   1.403       .  A
C784       C2075   1.404       .  A
C784        C785   1.404       .  A
C784        H788   1.083   1_655  S
C785       C2068   1.409       .  A
C785        H789   1.082   1_655  S
C790       C2083   1.406   1_455  A
C790        C795   1.402       .  A
C790        H800   1.083       .  S
C791        C796   1.475       .  S
C791       C2082   1.403       .  A
C791        C792   1.401       .  A
C792        C793   1.395       .  A
C792        H797   1.083       .  S
C793        C794   1.407       .  A
C793        H798   1.083       .  S
C794       C2087   1.409       .  A
C795       C2086   1.408   1_455  A
C795        H799   1.083       .  S
C796       C2093   1.404       .  A
C796        C805   1.400       .  A
C801       C2088   1.407   1_455  A
C801        C802   1.404       .  A
C801        H806   1.083       .  S
C802       C2095   1.406   1_455  A
C802        H807   1.082       .  S
C803       C2094   1.408       .  A
C803        C804   1.407       .  A
C804        C805   1.393       .  A
C804        H808   1.083       .  S
C805        H809   1.083       .  S
C810        C811   1.403       .  A
C810       C1138   1.396       .  A
C810        H820   1.084       .  S
C811        C816   1.481       .  S
C812        C813   1.401       .  A
C812        H817   1.083       .  S
C813        H818   1.083       .  S
C814        C988   1.482       .  S
C814       C1138   1.406       .  A
C815       C1133   1.396       .  A
C815       C1137   1.406   1_556  A
C815        H819   1.083       .  S
C816        C821   1.405       .  A
C816        C825   1.402   1_565  A
C821        C822   1.401       .  A
C821        H826   1.083       .  S
C822        C823   1.407       .  A
C822        H827   1.083       .  S
C823        C824   1.408   1_565  A
C824        C825   1.396       .  A
C824        H828   1.083       .  S
C825        H829   1.083       .  S
C830        C835   1.392       .  A
C830        H840   1.083       .  S
C831        C836   1.487       .  S
C831        C832   1.408       .  A
C832        C833   1.404       .  A
C832        H837   1.083       .  S
C833        C834   1.405       .  A
C833        H838   1.083       .  S
C835        H839   1.084       .  S
C836        C841   1.405       .  A
C836        C845   1.406       .  A
C841        C842   1.394       .  A
C841        H846   1.083       .  S
C842       C1166   1.405       .  A
C842        H847   1.083       .  S
C843       C1165   1.404   1_554  A
C843        C844   1.408       .  A
C844       C1168   1.403       .  A
C844        H848   1.083       .  S
C845       C1167   1.402       .  A
C845       H1172   1.083       .  S
H849       C1168   1.083       .  S
C850        C851   1.405       .  A
C850        C855   1.403       .  A
C850        H860   1.083       .  S
C851        C856   1.481       .  S
C851        C852   1.403       .  A
C852        C853   1.394       .  A
C853        C854   1.405       .  A
C854        C855   1.406       .  A
C855        H859   1.083       .  S
C856        C861   1.404       .  A
C856        C865   1.403   1_565  A
C861        C862   1.401       .  A
C861        H866   1.083       .  S
C862        C863   1.408       .  A
C862        H867   1.083       .  S
C863        C864   1.407   1_565  A
C864        C865   1.395       .  A
C864        H868   1.083       .  S
C865        H869   1.083       .  S
C870        C871   1.407       .  A
C870        C875   1.403       .  A
C870        H880   1.083       .  S
C871        C876   1.488       .  S
C871        C872   1.406       .  A
C872        C873   1.393       .  A
C873        C874   1.405       .  A
C874        C875   1.408       .  A
C875        H879   1.083       .  S
C876        C881   1.409       .  A
C876        C885   1.405       .  A
C881        C882   1.405       .  A
C881        H886   1.083       .  S
C882        C883   1.405       .  A
C882        H887   1.083       .  S
C883        C884   1.403       .  A
C884        C885   1.391       .  A
C884        H888   1.083       .  S
C885        H889   1.083       .  S
C890        C891   1.409       .  A
C890        C895   1.405       .  A
C890        H900   1.083       .  S
C891        C896   1.488       .  S
C891        C892   1.404       .  A
C892        C893   1.392       .  A
C892        H897   1.083       .  S
C893        C894   1.404       .  A
C893        H898   1.083       .  S
C894        C895   1.405       .  A
C895        H899   1.083       .  S
C896        C901   1.406       .  A
C896        C905   1.406       .  A
C901        C902   1.404       .  A
C901        H906   1.083       .  S
C902       C1226   1.410       .  A
C902       H1230   1.083       .  S
C903       C1225   1.410       .  A
C903       C1227   1.404   1_554  A
C904       C1226   1.404       .  A
C904        C905   1.394       .  A
C904        H908   1.083       .  S
C905        H909   1.083       .  S
H907       C1225   1.083       .  S
C910        C911   1.406       .  A
C910       C1238   1.403       .  A
C910       H1243   1.083       .  S
C911        C916   1.485       .  S
C911        C912   1.404       .  A
C912        C913   1.397       .  A
C912        H917   1.083       .  S
C913        C914   1.405       .  A
C913        H918   1.083       .  S
C914        C976   1.482       .  S
C914       C1238   1.407       .  A
C915       C1233   1.402   1_554  A
C915       C1237   1.406       .  A
C915        H919   1.083       .  S
C916        C921   1.405       .  A
C916        C925   1.404       .  A
H920       C1233   1.083   1_554  S
C921        C922   1.402       .  A
C921        H926   1.083       .  S
C922        C923   1.408       .  A
C922        H927   1.083       .  S
C923        C924   1.408       .  A
C924        C925   1.398       .  A
C924        H928   1.083       .  S
C925        H929   1.083       .  S
C930        C931   1.406       .  A
C930        C935   1.401       .  A
C930        H940   1.083       .  S
C931        C936   1.487       .  S
C931        C932   1.406       .  A
C932        C933   1.395       .  A
C932        H937   1.083       .  S
C933        C934   1.404       .  A
C933        H938   1.083       .  S
C934        C935   1.406       .  A
C935        H939   1.083       .  S
C936        C941   1.409       .  A
C936        C945   1.404       .  A
C941        C942   1.404       .  A
C941        H946   1.083       .  S
C942        C943   1.404       .  A
C942        H947   1.083       .  S
C943        C944   1.404       .  A
C944        C945   1.391       .  A
C944        H948   1.083       .  S
C945        H949   1.083       .  S
C950        C951   1.404       .  A
C950        C955   1.402       .  A
C950        H960   1.083       .  S
C951        C956   1.482       .  S
C951        C952   1.404       .  A
C952        C953   1.395       .  A
C952        H957   1.083       .  S
C953        C954   1.405       .  A
C953        H958   1.083       .  S
C954        C955   1.410       .  A
C955        H959   1.083       .  S
C956        C961   1.406       .  A
C956        C965   1.402       .  A
C961        C962   1.405       .  A
C961        H966   1.083       .  S
C962        C963   1.408       .  A
C962        H967   1.083       .  S
C963        C964   1.405       .  A
C964        C965   1.393       .  A
C964        H968   1.083       .  S
C965        H969   1.084       .  S
C970        N971   1.356       .  A
C970        N975   1.360       .  A
C970       C1286   1.480       .  S
N971        C972   1.356       .  A
C972        N973   1.358       .  A
C972       C1257   1.483       .  S
N973        C974   1.361       .  A
C974        N975   1.362       .  A
C974        C978   1.470       .  S
C976        N977   1.360       .  A
C976        N981   1.359       .  A
N977        C978   1.361       .  A
C978        N979   1.360       .  A
N979        C980   1.358       .  A
C980        N981   1.360       .  A
C980       C1226   1.486       .  S
C982        N983   1.359       .  A
C982        N987   1.356       .  A
C982       C1177   1.478       .  S
N983        C984   1.361       .  A
C984        N985   1.362       .  A
C984        C990   1.470       .  S
N985        C986   1.359       .  A
C986        N987   1.357       .  A
C986       C1197   1.486       .  S
C988        N989   1.360       .  A
C988        N993   1.357       .  A
N989        C990   1.361       .  A
C990        N991   1.360       .  A
N991        C992   1.359       .  A
C992        N993   1.358       .  A
C992       C1166   1.483       .  S
C994        N995   1.361       .  A
C994        N999   1.356       .  A
C994       C1126   1.484       .  S
N995        C996   1.363       .  A
C996        N997   1.361       .  A
C996       C1004   1.469       .  S
N997        C998   1.357       .  A
C998        N999   1.355       .  A
C998       C1097   1.483       .  S
C1000      N1001   1.358       .  A
C1000      N1005   1.360       .  A
N1001      C1002   1.358       .  A
C1002      N1003   1.357       .  A
C1002      C1057   1.479       .  S
N1003      C1004   1.358       .  A
C1004      N1005   1.360       .  A
O1006     Mn1032   2.083       .  S
C1007      C1246   1.487       .  S
C1007      O1040   1.272       .  A
C1007      O1037   1.273       .  A
O1008     Mn1015   2.163       .  S
O1008     Mn1026   2.128       .  S
O1008     Mn1030   2.175       .  S
O1009     Mn1043   2.092       .  S
O1009      C1019   1.271       .  A
O1010     Mn1026   2.102       .  S
O1010      C1033   1.273       .  A
O1011     Mn1030   2.102       .  S
O1011      C1038   1.253       .  A
O1012     Mn2335   1.956       .  S
O1012     Mn1032   1.953       .  S
O1012      C1028   1.219       .  S
C1013      C1206   1.478       .  S
C1013      O1016   1.253       .  A
C1013      O1039   1.219       .  S
O1014     Mn2326   2.125       .  S
O1014     Mn1015   2.167       .  S
O1014     Mn1048   2.126       .  S
O1014     Mn1030   2.165       .  S
Mn1015     O2336   2.103       .  S
Mn1015     O1020   2.106       .  S
Mn1015     O1667   2.169   1_565  S
O1016     Mn2322   2.109   1_455  S
O1017     Mn1024   2.093       .  S
O1017      C1019   1.273       .  A
C1018      C1157   1.473       .  S
C1018      O1044   1.251       .  A
C1018      O1031   1.219       .  S
C1019      C1277   1.484       .  S
O1020      C1045   1.252       .  A
O1021     Mn1661   2.170   1_455  S
O1021     Mn1024   2.119       .  S
O1021     Mn1043   2.125       .  S
O1021     Mn1676   2.166   1_455  S
O1022     Mn1026   1.968       .  S
O1022     Mn1048   1.963       .  S
O1022      C1045   1.220       .  S
C1023      C1117   1.483       .  S
C1023      O2341   1.272       .  A
C1023      O1025   1.273       .  A
Mn1024     O1037   2.099       .  S
O1025     Mn1048   2.098       .  S
Mn1026     O1042   2.105       .  S
Mn1026     O1036   1.959       .  S
O1027     Mn1032   2.084       .  S
C1028      C1106   1.476       .  S
C1028      O1046   1.252       .  A
C1029      C1146   1.484       .  S
C1029      O1042   1.274       .  A
Mn1030     O2308   2.114       .  S
Mn1030     O1667   2.162   1_565  S
O1031     Mn1034   1.960       .  S
Mn1032     O1050   1.960       .  S
C1033      C1186   1.484       .  S
Mn1034     O1041   2.082       .  S
Mn1034     O1049   2.095       .  S
Mn1034     O2306   2.127   1_455  S
Mn1034     O1039   1.955       .  S
C1035      C1086   1.484       .  S
C1035      O2333   1.270       .  A
C1035      O1051   1.274       .  A
O1036     Mn1048   1.965       .  S
O1036      C1038   1.220       .  S
C1038      C1266   1.474       .  S
O1040     Mn1043   2.093       .  S
O1041      C2327   1.270   1_455  A
Mn1043     O2304   1.956   1_455  S
Mn1043     O2342   1.954   1_455  S
O1044     Mn2307   2.101   1_455  S
C1045      C1217   1.479       .  S
O1047      C1052   1.253       .  A
Mn1048     O1051   2.104       .  S
O1049      C2315   1.273   1_455  A
O1050     Mn2335   1.957       .  S
O1050      C1052   1.219       .  S
C1052      C1066   1.479       .  S
C1053      C1054   1.406   1_554  A
C1053      C1058   1.401       .  A
C1053      H1063   1.083       .  S
C1054      C1059   1.489       .  S
C1054      C2347   1.407       .  A
C1055      C2346   1.407   1_455  A
C1055      C1056   1.395       .  A
C1055      H1060   1.083       .  S
C1056      C2026   1.403   1_456  A
C1056      H1061   1.083       .  S
C1057      C2025   1.403       .  A
C1059      C1064   1.409       .  A
C1059      C1068   1.405       .  A
C1064      C1065   1.404       .  A
C1064      H1069   1.082       .  S
C1065      C1066   1.405       .  A
C1065      H1070   1.083       .  S
C1066      C1067   1.404       .  A
C1067      C1068   1.392       .  A
C1067      H2363   1.083       .  S
C1068      H2364   1.083       .  S
H1071      C2359   1.083       .  S
H1072      C2360   1.083       .  S
C1073      C1074   1.406       .  A
C1073      C1078   1.397       .  A
C1073      H1083   1.083       .  S
C1074      C1079   1.484       .  S
C1074      C1075   1.406       .  A
C1076      H1081   1.083       .  S
C1077      C1078   1.403   1_554  A
C1078      H1082   1.084       .  S
C1079      C1084   1.404       .  A
C1079      C1088   1.406       .  A
C1084      C1085   1.396       .  A
C1084      H2381   1.083       .  S
C1085      C1086   1.408       .  A
C1085      H2382   1.083       .  S
C1086      C1087   1.406       .  A
C1087      C1088   1.400       .  A
C1087      H1091   1.083       .  S
C1088      H1092   1.083       .  S
H1089      C2376   1.083       .  S
H1090      C2377   1.083       .  S
C1093      C1094   1.407       .  A
C1093      C1098   1.404       .  A
C1093      H1103   1.083       .  S
C1094      C1099   1.487       .  S
C1094      C2387   1.405       .  A
C1095      C2386   1.405       .  A
C1095      C1096   1.391       .  A
C1095      H1100   1.083       .  S
C1096      C2389   1.404       .  A
C1096      H1101   1.083       .  S
C1097      C2388   1.404       .  A
C1097      C1098   1.408       .  A
C1098      H1102   1.083       .  S
C1099      C1104   1.405       .  A
C1099      C2400   1.408       .  A
C1104      C1105   1.391       .  A
C1104      H1109   1.083       .  S
C1105      C1106   1.403       .  A
C1105      H1110   1.083       .  S
C1106      C2399   1.405       .  A
C1107      C2398   1.404       .  A
C1107      C1108   1.404       .  A
C1107      H1111   1.083   1_655  S
C1108      C2391   1.409       .  A
C1108      H1112   1.082   1_655  S
C1113      C2406   1.404   1_455  A
C1113      C1118   1.398       .  A
C1113      H1123   1.083       .  S
C1114      C1119   1.481       .  S
C1114      C2405   1.404       .  A
C1114      C1115   1.404       .  A
C1115      C1116   1.401       .  A
C1115      H1120   1.083       .  S
C1116      C1117   1.407       .  A
C1116      H1121   1.083       .  S
C1117      C2410   1.406       .  A
C1118      C2409   1.406   1_455  A
C1118      H1122   1.083       .  S
C1119      C2416   1.405       .  A
C1119      C1128   1.402       .  A
C1124      C2411   1.406       .  A
C1124      C1125   1.404       .  A
C1124      H1129   1.083       .  S
C1125      C2418   1.407       .  A
C1125      H1130   1.082       .  S
C1126      C2417   1.407       .  A
C1126      C1127   1.407       .  A
C1127      C1128   1.394       .  A
C1127      H1131   1.083       .  S
C1128      H1132   1.083       .  S
C1133      C1134   1.403       .  A
C1133      H1143   1.083       .  S
C1134      C1139   1.481       .  S
C1135      C1136   1.402   1_556  A
C1135      H1140   1.083   1_556  S
C1136      H1141   1.083       .  S
C1138      H1142   1.083       .  S
C1139      C1144   1.405       .  A
C1139      C1148   1.402   1_565  A
C1144      C1145   1.401       .  A
C1144      H1149   1.083       .  S
C1145      C1146   1.407       .  A
C1145      H1150   1.083       .  S
C1146      C1147   1.408   1_565  A
C1147      C1148   1.397       .  A
C1147      H1151   1.083       .  S
C1148      H1152   1.084       .  S
C1153      C1158   1.392       .  A
C1153      H1163   1.083       .  S
C1154      C1159   1.486       .  S
C1154      C1155   1.408       .  A
C1155      C1156   1.404       .  A
C1155      H1160   1.083       .  S
C1156      C1157   1.405       .  A
C1156      H1161   1.083       .  S
C1158      H1162   1.084       .  S
C1159      C1164   1.405       .  A
C1159      C1168   1.406   1_556  A
C1164      C1165   1.393       .  A
C1164      H1169   1.083       .  S
C1165      H1170   1.083       .  S
C1166      C1167   1.408       .  A
C1167      H1171   1.083       .  S
C1173      C1174   1.406       .  A
C1173      C1178   1.403       .  A
C1173      H1183   1.083       .  S
C1174      C1179   1.480       .  S
C1174      C1175   1.403       .  A
C1175      C1176   1.394       .  A
C1176      C1177   1.404       .  A
C1177      C1178   1.406       .  A
C1178      H1182   1.083       .  S
C1179      C1184   1.404       .  A
C1179      C1188   1.403   1_565  A
C1184      C1185   1.401       .  A
C1184      H1189   1.083       .  S
C1185      C1186   1.408       .  A
C1185      H1190   1.083       .  S
C1186      C1187   1.408   1_565  A
C1187      C1188   1.396       .  A
C1187      H1191   1.083       .  S
C1188      H1192   1.083       .  S
C1193      C1194   1.408       .  A
C1193      C1198   1.404       .  A
C1193      H1203   1.082       .  S
C1194      C1199   1.491       .  S
C1194      C1195   1.406       .  A
C1195      C1196   1.393       .  A
C1196      C1197   1.405       .  A
C1197      C1198   1.408       .  A
C1198      H1202   1.083       .  S
C1199      C1204   1.410       .  A
C1199      C1208   1.405       .  A
C1204      C1205   1.405       .  A
C1204      H1209   1.082       .  S
C1205      C1206   1.404       .  A
C1205      H1210   1.083       .  S
C1206      C1207   1.403       .  A
C1207      C1208   1.392       .  A
C1207      H1211   1.083       .  S
C1208      H1212   1.083       .  S
C1213      C1214   1.408       .  A
C1213      C1218   1.406       .  A
C1213      H1223   1.083       .  S
C1214      C1219   1.487       .  S
C1214      C1215   1.404       .  A
C1215      C1216   1.392       .  A
C1215      H1220   1.083       .  S
C1216      C1217   1.403       .  A
C1216      H1221   1.083       .  S
C1217      C1218   1.406       .  A
C1218      H1222   1.083       .  S
C1219      C1224   1.406   1_556  A
C1219      C1228   1.405       .  A
C1224      C1225   1.404       .  A
C1224      H1229   1.083       .  S
C1227      C1228   1.394       .  A
C1227      H1231   1.083       .  S
C1228      H1232   1.083       .  S
C1233      C1234   1.405       .  A
C1234      C1239   1.483       .  S
C1234      C1235   1.404       .  A
C1235      C1236   1.398       .  A
C1235      H1240   1.083       .  S
C1236      C1237   1.405   1_556  A
C1236      H1241   1.083       .  S
C1238      H1242   1.083       .  S
C1239      C1244   1.404       .  A
C1239      C1248   1.404       .  A
C1244      C1245   1.400       .  A
C1244      H1249   1.083       .  S
C1245      C1246   1.408       .  A
C1245      H1250   1.083       .  S
C1246      C1247   1.408       .  A
C1247      C1248   1.398       .  A
C1247      H1251   1.083       .  S
C1248      H1252   1.083       .  S
C1253      C1254   1.406       .  A
C1253      C1258   1.402       .  A
C1253      H1263   1.083       .  S
C1254      C1259   1.485       .  S
C1254      C1255   1.405       .  A
C1255      C1256   1.393       .  A
C1255      H1260   1.083       .  S
C1256      C1257   1.405       .  A
C1256      H1261   1.083       .  S
C1257      C1258   1.407       .  A
C1258      H1262   1.083       .  S
C1259      C1264   1.408       .  A
C1259      C1268   1.405       .  A
C1264      C1265   1.403       .  A
C1264      H1269   1.083       .  S
C1265      C1266   1.404       .  A
C1265      H1270   1.083       .  S
C1266      C1267   1.403       .  A
C1267      C1268   1.391       .  A
C1267      H1271   1.083       .  S
C1268      H1272   1.083       .  S
C1273      C1274   1.405       .  A
C1273      C1278   1.403       .  A
C1273      H1283   1.083       .  S
C1274      C1279   1.482       .  S
C1274      C1275   1.404       .  A
C1275      C1276   1.394       .  A
C1275      H1280   1.083       .  S
C1276      C1277   1.405       .  A
C1276      H1281   1.083       .  S
C1277      C1278   1.410       .  A
C1278      H1282   1.083       .  S
C1279      C1284   1.406       .  A
C1279      C1288   1.403       .  A
C1284      C1285   1.405       .  A
C1284      H1289   1.083       .  S
C1285      C1286   1.407       .  A
C1285      H1290   1.083       .  S
C1286      C1287   1.404       .  A
C1287      C1288   1.392       .  A
C1287      H1291   1.083       .  S
C1288      H1292   1.084       .  S
C1293      N1294   1.356       .  A
C1293      N1298   1.360       .  A
C1293      C1609   1.481       .  S
N1294      C1295   1.356       .  A
C1295      N1296   1.357       .  A
C1295      C1580   1.481       .  S
N1296      C1297   1.360       .  A
C1297      N1298   1.363       .  A
C1297      C1301   1.469       .  S
C1299      N1300   1.358       .  A
C1299      N1304   1.359       .  A
C1299      C1883   1.479       .  S
N1300      C1301   1.359       .  A
C1301      N1302   1.360       .  A
N1302      C1303   1.359       .  A
C1303      N1304   1.360       .  A
C1303      C1549   1.486       .  S
C1305      N1306   1.360       .  A
C1305      N1310   1.357       .  A
C1305      C1500   1.480       .  S
N1306      C1307   1.362       .  A
C1307      N1308   1.361       .  A
C1307      C1313   1.470       .  S
N1308      C1309   1.358       .  A
C1309      N1310   1.357       .  A
C1309      C1520   1.485       .  S
C1311      N1312   1.360       .  A
C1311      N1316   1.356       .  A
C1311      C1783   1.480       .  S
N1312      C1313   1.361       .  A
C1313      N1314   1.360       .  A
N1314      C1315   1.358       .  A
C1315      N1316   1.357       .  A
C1315      C1489   1.483       .  S
C1317      N1318   1.359       .  A
C1317      N1322   1.356       .  A
C1317      C1449   1.479       .  S
N1318      C1319   1.362       .  A
C1319      N1320   1.362       .  A
C1319      C1327   1.469       .  S
N1320      C1321   1.358       .  A
C1321      N1322   1.356       .  A
C1321      C1420   1.484       .  S
C1323      N1324   1.358   1_655  A
C1323      N1328   1.359       .  A
C1323      C1723   1.475       .  S
N1324      C1325   1.358   1_455  A
C1325      N1326   1.358       .  A
C1325      C1380   1.481   1_655  S
N1326      C1327   1.359       .  A
C1327      N1328   1.359       .  A
O1329     Mn1355   2.086   1_565  S
O1329      C2002   1.271       .  A
C1330      C1569   1.487       .  S
C1330      O1363   1.272       .  A
C1330      O1360   1.273       .  A
O1331     Mn1338   2.167       .  S
O1331     Mn1349   2.125       .  S
O1331     Mn1353   2.174       .  S
O1331     Mn2001   2.119       .  S
O1332     Mn1366   2.093       .  S
O1332      C1342   1.271       .  A
O1333     Mn1349   2.101       .  S
O1333      C1356   1.273       .  A
O1334     Mn1353   2.104       .  S
O1334      C1361   1.253       .  A
O1335     Mn1355   1.951       .  S
O1335      C1351   1.217       .  S
C1336      C1529   1.477       .  S
C1336      O1339   1.252       .  A
C1336      O1362   1.219       .  S
O1337     Mn1338   2.165       .  S
O1337     Mn1371   2.123       .  S
O1337     Mn1353   2.165       .  S
Mn1338     O1343   2.105       .  S
Mn1338     O2016   2.104       .  S
O1340     Mn1347   2.093       .  S
O1340      C1342   1.273       .  A
C1341      C1480   1.474       .  S
C1341      O1367   1.252       .  A
C1341      O1354   1.219       .  S
C1342      C1600   1.484       .  S
O1343      C1368   1.252       .  A
O1344     Mn1347   2.121       .  S
O1344     Mn1366   2.124       .  S
O1345     Mn1349   1.963       .  S
O1345     Mn1371   1.956       .  S
O1345      C1368   1.219       .  S
C1346      C1440   1.483       .  S
C1346      O1348   1.272       .  A
Mn1347     O1360   2.101       .  S
Mn1347     O2008   1.966   1_545  S
Mn1347     O2000   1.960   1_545  S
O1348     Mn1371   2.088       .  S
Mn1349     O1365   2.101       .  S
Mn1349     O1359   1.958       .  S
O1350     Mn1355   2.084       .  S
O1350      C1998   1.271   1_545  A
C1351      C1429   1.480       .  S
C1351      O1369   1.253       .  A
C1352      C1469   1.483       .  S
C1352      O1996   1.271       .  A
C1352      O1365   1.273       .  A
Mn1353     O2015   2.108       .  S
O1354     Mn1993   1.960       .  S
O1354     Mn1357   1.961       .  S
Mn1355     O1977   2.118   1_545  S
Mn1355     O1373   1.957       .  S
C1356      C1509   1.485       .  S
C1356      O1975   1.271       .  A
Mn1357     O1364   2.085       .  S
Mn1357     O1372   2.098       .  S
Mn1357     O1362   1.955       .  S
C1358      C1409   1.482       .  S
C1358      O1374   1.272       .  A
O1359     Mn1371   1.962       .  S
O1359      C1361   1.219       .  S
C1361      C1589   1.474       .  S
O1362     Mn1993   1.967       .  S
O1363     Mn1366   2.093       .  S
C1368      C1540   1.477       .  S
O1369     Mn1999   2.116   1_545  S
O1370     Mn1984   2.103   1_545  S
O1370      C1375   1.252       .  A
Mn1371     O1374   2.093       .  S
O1373      C1375   1.219       .  S
C1375      C1389   1.477       .  S
C1376      C1377   1.406       .  A
C1376      C1381   1.401       .  A
C1376      H1386   1.083       .  S
C1377      C1382   1.486       .  S
C1378      C1379   1.395       .  A
C1378      H1383   1.083       .  S
C1379      H1384   1.083       .  S
C1380      C1704   1.407   1_455  A
C1381      C1703   1.407       .  A
C1381      H1708   1.083       .  S
C1382      C1387   1.408       .  A
C1382      C1391   1.404       .  A
H1385      C1704   1.083       .  S
C1387      C1388   1.403       .  A
C1387      H1392   1.082       .  S
C1388      C1389   1.405       .  A
C1388      H1393   1.083       .  S
C1389      C1390   1.404       .  A
C1390      C1391   1.391       .  A
C1396      C1397   1.405   1_455  A
C1396      C1401   1.396       .  A
C1396      H1406   1.083       .  S
C1397      C1402   1.479       .  S
C1397      C1398   1.404       .  A
C1398      C1722   1.399       .  A
C1398      H1726   1.083       .  S
C1399      C1721   1.399   1_554  A
C1399      C1723   1.405       .  A
C1399      H1404   1.083       .  S
C1400      C1646   1.474       .  S
C1400      C1722   1.404       .  A
C1400      C1401   1.403   1_655  A
C1401      H1405   1.084       .  S
C1402      C1407   1.403   1_655  A
C1402      C1411   1.404       .  A
H1403      C1721   1.083   1_554  S
C1407      C1408   1.396       .  A
C1408      C1409   1.407   1_455  A
C1409      C1410   1.407       .  A
C1410      C1411   1.398       .  A
C1410      H1414   1.083       .  S
C1411      H1415   1.083       .  S
C1416      C1417   1.408       .  A
C1416      C1421   1.404       .  A
C1416      H1426   1.083       .  S
C1417      C1422   1.491       .  S
C1418      C1419   1.392       .  A
C1418      H1423   1.083       .  S
C1419      H1424   1.083       .  S
C1420      C1421   1.407       .  A
C1421      H1425   1.083       .  S
C1422      C1427   1.405       .  A
C1427      C1428   1.392       .  A
C1427      H1432   1.083       .  S
C1428      C1429   1.404       .  A
C1428      H1433   1.083       .  S
C1430      C1431   1.405       .  A
C1430      H1434   1.083       .  S
C1431      H1435   1.082       .  S
C1436      C1441   1.401       .  A
C1436      H1446   1.083       .  S
C1437      C1442   1.484       .  S
C1437      C1438   1.404       .  A
C1438      C1439   1.395       .  A
C1438      H1443   1.083       .  S
C1439      C1440   1.406       .  A
C1439      H1444   1.083       .  S
C1441      H1445   1.083       .  S
C1442      C1451   1.404       .  A
C1447      C1448   1.403       .  A
C1447      H1452   1.083       .  S
C1448      H1453   1.082       .  S
C1449      C1450   1.404       .  A
C1450      C1451   1.393       .  A
C1450      H1454   1.084       .  S
C1451      H1455   1.083       .  S
C1456      C1457   1.403       .  A
C1456      C1784   1.396       .  A
C1456      H1466   1.084       .  S
C1457      C1462   1.480       .  S
C1457      C2104   1.405       .  A
C1458      C2103   1.405       .  A
C1458      C1459   1.402       .  A
C1458      H1463   1.083       .  S
C1459      C2106   1.406       .  A
C1459      H1464   1.083       .  S
C1460      C1634   1.481       .  S
C1460      C2105   1.406       .  A
C1460      C1784   1.406       .  A
C1461      C1779   1.396       .  A
C1461      C1783   1.406   1_556  A
C1461      H1465   1.083       .  S
C1462      C1467   1.405       .  A
C1462      C1471   1.402       .  A
C1467      C1468   1.400       .  A
C1467      H1472   1.083       .  S
C1468      C1469   1.407       .  A
C1468      H1473   1.083       .  S
C1469      C1470   1.408       .  A
C1470      C1471   1.396       .  A
C1470      H1474   1.083       .  S
C1471      H1475   1.083       .  S
C1476      C2123   1.405       .  A
C1476      C1481   1.392       .  A
C1476      H1486   1.083   1_565  S
C1477      C1482   1.487       .  S
C1477      C2122   1.405       .  A
C1477      C1478   1.408       .  A
C1478      C1479   1.404       .  A
C1478      H1483   1.083       .  S
C1479      C1480   1.405       .  A
C1479      H1484   1.083       .  S
C1480      C2127   1.402       .  A
C1481      C2126   1.402       .  A
C1481      H1485   1.084   1_565  S
C1482      C1487   1.405       .  A
C1482      C1491   1.406       .  A
C1487      C1488   1.394       .  A
C1487      H1492   1.083       .  S
C1488      C1812   1.405       .  A
C1488      H1493   1.083       .  S
C1489      C1811   1.405   1_554  A
C1489      C1490   1.408       .  A
C1490      C1814   1.402       .  A
C1490      H1494   1.083       .  S
C1491      C1813   1.403       .  A
C1491      H1818   1.083       .  S
H1495      C1814   1.083       .  S
C1496      C1497   1.406       .  A
C1496      C1501   1.403       .  A
C1496      H1506   1.083       .  S
C1497      C1502   1.482       .  S
C1497      C1498   1.403       .  A
C1498      C1499   1.394       .  A
C1498      H2149   1.083       .  S
C1499      C1500   1.405       .  A
C1499      H2150   1.083       .  S
C1500      C1501   1.406       .  A
C1501      H1505   1.083       .  S
C1502      C1507   1.405       .  A
C1502      C1511   1.403       .  A
H1503      C2144   1.083       .  S
H1504      C2145   1.083       .  S
C1507      C1508   1.401       .  A
C1507      H1512   1.083       .  S
C1508      C1509   1.408       .  A
C1508      H1513   1.083       .  S
C1509      C1510   1.407       .  A
C1510      C1511   1.396       .  A
C1510      H1514   1.083       .  S
C1511      H1515   1.083       .  S
C1516      C1517   1.407       .  A
C1516      C1521   1.404       .  A
C1516      H1526   1.083       .  S
C1517      C1522   1.489       .  S
C1517      C1518   1.405       .  A
C1518      C1519   1.393       .  A
C1518      H2169   1.083       .  S
C1519      C1520   1.405       .  A
C1519      H2170   1.083       .  S
C1520      C1521   1.408       .  A
C1521      H1525   1.083       .  S
C1522      C1527   1.409       .  A
C1522      C1531   1.405       .  A
H1523      C2164   1.083       .  S
H1524      C2165   1.083       .  S
C1527      C1528   1.405       .  A
C1527      H1532   1.083       .  S
C1528      C1529   1.405       .  A
C1528      H1533   1.083       .  S
C1529      C1530   1.403       .  A
C1530      C1531   1.392       .  A
C1530      H1534   1.083       .  S
C1531      H1535   1.083       .  S
C1536      C1537   1.408       .  A
C1536      C1541   1.405       .  A
C1536      H1546   1.083       .  S
C1537      C1542   1.484       .  S
C1537      C1538   1.403       .  A
C1538      C1539   1.391       .  A
C1538      H1543   1.083       .  S
C1539      C1540   1.403       .  A
C1539      H1544   1.083       .  S
C1540      C1541   1.406       .  A
C1541      H1545   1.083       .  S
C1542      C1547   1.405       .  A
C1542      C1551   1.405       .  A
C1547      C1548   1.403       .  A
C1547      H1552   1.083       .  S
C1548      C1872   1.409       .  A
C1548      H1876   1.083       .  S
C1549      C1871   1.410       .  A
C1549      C1873   1.404   1_554  A
C1550      C1872   1.404       .  A
C1550      C1551   1.393       .  A
C1550      H1554   1.083       .  S
C1551      H1555   1.083       .  S
H1553      C1871   1.083       .  S
C1556      C1557   1.406       .  A
C1556      C1884   1.403       .  A
C1556      H1889   1.083       .  S
C1557      C1562   1.484       .  S
C1557      C1558   1.404       .  A
C1558      C1559   1.397       .  A
C1558      H1563   1.083       .  S
C1559      C1560   1.405       .  A
C1559      H1564   1.083       .  S
C1560      C1622   1.482       .  S
C1560      C1884   1.406       .  A
C1561      C1879   1.401   1_554  A
C1561      C1883   1.406       .  A
C1561      H1565   1.083       .  S
C1562      C1567   1.405       .  A
C1562      C1571   1.404       .  A
H1566      C1879   1.083   1_554  S
C1567      C1568   1.401       .  A
C1567      H1572   1.083       .  S
C1568      C1569   1.408       .  A
C1568      H1573   1.083       .  S
C1569      C1570   1.408       .  A
C1570      C1571   1.398       .  A
C1570      H1574   1.083       .  S
C1571      H1575   1.083       .  S
C1576      C1577   1.406       .  A
C1576      C1581   1.402       .  A
C1576      H1586   1.083       .  S
C1577      C1582   1.486       .  S
C1577      C1578   1.405       .  A
C1578      C1579   1.392       .  A
C1578      H1583   1.083       .  S
C1579      C1580   1.404       .  A
C1579      H1584   1.083       .  S
C1580      C1581   1.407       .  A
C1581      H1585   1.083       .  S
C1582      C1587   1.408       .  A
C1582      C1591   1.405       .  A
C1587      C1588   1.403       .  A
C1587      H1592   1.083       .  S
C1588      C1589   1.404       .  A
C1588      H1593   1.083       .  S
C1589      C1590   1.403       .  A
C1590      C1591   1.391       .  A
C1590      H1594   1.083       .  S
C1591      H1595   1.083       .  S
C1596      C1597   1.404       .  A
C1596      C1601   1.402       .  A
C1596      H1606   1.083       .  S
C1597      C1602   1.482       .  S
C1597      C1598   1.404       .  A
C1598      C1599   1.394       .  A
C1598      H1603   1.083       .  S
C1599      C1600   1.405       .  A
C1599      H1604   1.083       .  S
C1600      C1601   1.409       .  A
C1601      H1605   1.083       .  S
C1602      C1607   1.406       .  A
C1602      C1611   1.402       .  A
C1607      C1608   1.405       .  A
C1607      H1612   1.083       .  S
C1608      C1609   1.407       .  A
C1608      H1613   1.083       .  S
C1609      C1610   1.405       .  A
C1610      C1611   1.392       .  A
C1610      H1614   1.083       .  S
C1611      H1615   1.084       .  S
C1616      N1617   1.358       .  A
C1616      N1621   1.360       .  A
C1616      C1932   1.481       .  S
N1617      C1618   1.356       .  A
C1618      N1619   1.357       .  A
C1618      C1903   1.483       .  S
N1619      C1620   1.360       .  A
C1620      N1621   1.361       .  A
C1620      C1624   1.469       .  S
C1622      N1623   1.360       .  A
C1622      N1627   1.359       .  A
N1623      C1624   1.361       .  A
C1624      N1625   1.359       .  A
N1625      C1626   1.357       .  A
C1626      N1627   1.359       .  A
C1626      C1872   1.484       .  S
C1628      N1629   1.359       .  A
C1628      N1633   1.357       .  A
C1628      C1823   1.480       .  S
N1629      C1630   1.361       .  A
C1630      N1631   1.361       .  A
C1630      C1636   1.470       .  S
N1631      C1632   1.359       .  A
C1632      N1633   1.357       .  A
C1632      C1843   1.485       .  S
C1634      N1635   1.360       .  A
C1634      N1639   1.357       .  A
N1635      C1636   1.361       .  A
C1636      N1637   1.360       .  A
N1637      C1638   1.359       .  A
C1638      N1639   1.358       .  A
C1638      C1812   1.484       .  S
C1640      N1641   1.359       .  A
C1640      N1645   1.356       .  A
C1640      C1772   1.478       .  S
N1641      C1642   1.361       .  A
C1642      N1643   1.360       .  A
C1642      C1650   1.468       .  S
N1643      C1644   1.358       .  A
C1644      N1645   1.356       .  A
C1644      C1743   1.482       .  S
C1646      N1647   1.357       .  A
C1646      N1651   1.358       .  A
N1647      C1648   1.359       .  A
C1648      N1649   1.358       .  A
C1648      C1703   1.481       .  S
N1649      C1650   1.359       .  A
C1650      N1651   1.359       .  A
O1652     Mn1678   2.086       .  S
O1652      C2325   1.271   1_545  A
C1653      C1892   1.486       .  S
C1653      O1686   1.272       .  A
C1653      O1683   1.273       .  A
O1654     Mn1661   2.162       .  S
O1654     Mn1672   2.126       .  S
O1654     Mn1676   2.174       .  S
O1654     Mn2324   2.118       .  S
O1655     Mn1689   2.093       .  S
O1655      C1665   1.271       .  A
O1656     Mn1672   2.104       .  S
O1656      C1679   1.273       .  A
O1657     Mn1676   2.111       .  S
O1657      C1684   1.254       .  A
O1658     Mn1678   1.947       .  S
O1658      C1674   1.216       .  S
C1659      C1852   1.479       .  S
C1659      O1662   1.253       .  A
C1659      O1685   1.217       .  S
O1660     Mn1661   2.165       .  S
O1660     Mn1694   2.123       .  S
O1660     Mn1676   2.164       .  S
Mn1661     O1666   2.107       .  S
Mn1661     O2339   2.104       .  S
O1663     Mn1670   2.092       .  S
O1663      C1665   1.273       .  A
C1664      C1803   1.473       .  S
C1664      O1690   1.252       .  A
C1664      O1677   1.219       .  S
C1665      C1923   1.484       .  S
O1666      C1691   1.252       .  A
O1667     Mn1670   2.118       .  S
O1667     Mn1689   2.125       .  S
O1668     Mn1672   1.970       .  S
O1668     Mn1694   1.961       .  S
O1668      C1691   1.219       .  S
C1669      C1763   1.482       .  S
C1669      O1671   1.272       .  A
Mn1670     O1683   2.097       .  S
Mn1670     O2331   1.966   1_545  S
Mn1670     O2323   1.958   1_545  S
O1671     Mn1694   2.094       .  S
Mn1672     O1688   2.102       .  S
Mn1672     O1682   1.955       .  S
O1673     Mn1678   2.084       .  S
O1673      C2321   1.271   1_545  A
C1674      C1752   1.478       .  S
C1674      O1692   1.253       .  A
C1675      C1792   1.483       .  S
C1675      O2319   1.271       .  A
C1675      O1688   1.274       .  A
Mn1676     O2338   2.105       .  S
O1677     Mn2316   1.961       .  S
O1677     Mn1680   1.962       .  S
Mn1678     O2300   2.118   1_545  S
Mn1678     O1696   1.960       .  S
C1679      C1832   1.485       .  S
C1679      O2298   1.270       .  A
Mn1680     O1687   2.083       .  S
Mn1680     O1695   2.103       .  S
Mn1680     O1685   1.952       .  S
C1681      C1732   1.481       .  S
C1681      O1697   1.273       .  A
O1682     Mn1694   1.960       .  S
O1682      C1684   1.218       .  S
C1684      C1912   1.477       .  S
O1685     Mn2316   1.964       .  S
O1686     Mn1689   2.093       .  S
C1691      C1863   1.479       .  S
O1692     Mn2322   2.116   1_545  S
O1693     Mn2307   2.106   1_545  S
O1693      C1698   1.253       .  A
Mn1694     O1697   2.098       .  S
O1696      C1698   1.218       .  S
C1698      C1712   1.477       .  S
C1699      C1700   1.405   1_554  A
C1699      C1704   1.400       .  A
C1699      H1709   1.083       .  S
C1700      C1705   1.486       .  S
C1701      C1702   1.396       .  A
C1701      H1706   1.083       .  S
C1702      H1707   1.083       .  S
C1705      C1710   1.409   1_655  A
C1705      C1714   1.404       .  A
C1710      C1711   1.403   1_455  A
C1710      H1715   1.083       .  S
C1711      C1712   1.405       .  A
C1711      H1716   1.083   1_655  S
C1712      C1713   1.404       .  A
C1713      C1714   1.391       .  A
C1719      C1720   1.404   1_455  A
C1719      C1724   1.396       .  A
C1719      H1729   1.083       .  S
C1720      C1725   1.478       .  S
C1720      C1721   1.404       .  A
C1722      H1727   1.083       .  S
C1723      C1724   1.404   1_654  A
C1724      H1728   1.084       .  S
C1725      C1730   1.402   1_655  A
C1725      C1734   1.404       .  A
C1730      C1731   1.396       .  A
C1731      C1732   1.408   1_455  A
C1732      C1733   1.406       .  A
C1733      C1734   1.398       .  A
C1733      H1737   1.083       .  S
C1734      H1738   1.083       .  S
C1739      C1740   1.407       .  A
C1739      C1744   1.402       .  A
C1739      H1749   1.082       .  S
C1740      C1745   1.489       .  S
C1741      C1742   1.392       .  A
C1741      H1746   1.083       .  S
C1742      H1747   1.083       .  S
C1743      C1744   1.407       .  A
C1744      H1748   1.083       .  S
C1745      C1750   1.404       .  A
C1750      C1751   1.391       .  A
C1750      H1755   1.083       .  S
C1751      C1752   1.405       .  A
C1751      H1756   1.083       .  S
C1753      C1754   1.404       .  A
C1753      H1757   1.083       .  S
C1754      H1758   1.082       .  S
C1759      C1764   1.402       .  A
C1759      H1769   1.083       .  S
C1760      C1765   1.485       .  S
C1760      C1761   1.406       .  A
C1761      C1762   1.400       .  A
C1761      H1766   1.083       .  S
C1762      C1763   1.407       .  A
C1762      H1767   1.083       .  S
C1764      H1768   1.083       .  S
C1765      C1774   1.404   1_655  A
C1770      C1771   1.404       .  A
C1770      H1775   1.083       .  S
C1771      H1776   1.082       .  S
C1772      C1773   1.404   1_655  A
C1773      C1774   1.394       .  A
C1773      H1777   1.084       .  S
C1774      H1778   1.083       .  S
C1779      C1780   1.403       .  A
C1779      H1789   1.084       .  S
C1780      C1785   1.481       .  S
C1780      C2427   1.405       .  A
C1781      C2426   1.405       .  A
C1781      C1782   1.401   1_556  A
C1781      H1786   1.083   1_556  S
C1782      C2429   1.405       .  A
C1782      H1787   1.083       .  S
C1783      C2428   1.405       .  A
C1784      H1788   1.083       .  S
C1785      C1790   1.405       .  A
C1785      C1794   1.402       .  A
C1790      C1791   1.401       .  A
C1790      H1795   1.083       .  S
C1791      C1792   1.407       .  A
C1791      H1796   1.083       .  S
C1792      C1793   1.408       .  A
C1793      C1794   1.396       .  A
C1793      H1797   1.083       .  S
C1794      H1798   1.083       .  S
C1799      C2446   1.405       .  A
C1799      C1804   1.391       .  A
C1799      H1809   1.083       .  S
C1800      C1805   1.485       .  S
C1800      C2445   1.405       .  A
C1800      C1801   1.408       .  A
C1801      C1802   1.403       .  A
C1801      H1806   1.083       .  S
C1802      C1803   1.405       .  A
C1802      H1807   1.083       .  S
C1803      C2450   1.402       .  A
C1804      C2449   1.402       .  A
C1804      H1808   1.084   1_565  S
C1805      C1810   1.405       .  A
C1805      C1814   1.406   1_556  A
C1810      C1811   1.393       .  A
C1810      H1815   1.083       .  S
C1811      H1816   1.083       .  S
C1812      C1813   1.408       .  A
C1813      H1817   1.083       .  S
C1819      C1820   1.406       .  A
C1819      C1824   1.403       .  A
C1819      H1829   1.083       .  S
C1820      C1825   1.482       .  S
C1820      C1821   1.403       .  A
C1821      C1822   1.394       .  A
C1821      H2472   1.083       .  S
C1822      C1823   1.404       .  A
C1822      H2473   1.083       .  S
C1823      C1824   1.406       .  A
C1824      H1828   1.083       .  S
C1825      C1830   1.405       .  A
C1825      C1834   1.403       .  A
H1826      C2467   1.083       .  S
H1827      C2468   1.083       .  S
C1830      C1831   1.402       .  A
C1830      H1835   1.083       .  S
C1831      C1832   1.408       .  A
C1831      H1836   1.083       .  S
C1832      C1833   1.407       .  A
C1833      C1834   1.395       .  A
C1833      H1837   1.083       .  S
C1834      H1838   1.083       .  S
C1839      C1840   1.407       .  A
C1839      C1844   1.404       .  A
C1839      H1849   1.083       .  S
C1840      C1845   1.491       .  S
C1840      C1841   1.407       .  A
C1841      C1842   1.394       .  A
C1841      H2492   1.083       .  S
C1842      C1843   1.405       .  A
C1842      H2493   1.083       .  S
C1843      C1844   1.408       .  A
C1844      H1848   1.083       .  S
C1845      C1850   1.410       .  A
C1845      C1854   1.405       .  A
H1846      C2487   1.082       .  S
H1847      C2488   1.083       .  S
C1850      C1851   1.406       .  A
C1850      H1855   1.082       .  S
C1851      C1852   1.405       .  A
C1851      H1856   1.083       .  S
C1852      C1853   1.404       .  A
C1853      C1854   1.391       .  A
C1853      H1857   1.083       .  S
C1854      H1858   1.083       .  S
C1859      C1860   1.408       .  A
C1859      C1864   1.405       .  A
C1859      H1869   1.083       .  S
C1860      C1865   1.487       .  S
C1860      C1861   1.404       .  A
C1861      C1862   1.392       .  A
C1861      H1866   1.083       .  S
C1862      C1863   1.404       .  A
C1862      H1867   1.083       .  S
C1863      C1864   1.406       .  A
C1864      H1868   1.083       .  S
C1865      C1870   1.406   1_556  A
C1865      C1874   1.405       .  A
C1870      C1871   1.404       .  A
C1870      H1875   1.083       .  S
C1873      C1874   1.394       .  A
C1873      H1877   1.083       .  S
C1874      H1878   1.083       .  S
C1879      C1880   1.405       .  A
C1880      C1885   1.481       .  S
C1880      C1881   1.404       .  A
C1881      C1882   1.397       .  A
C1881      H1886   1.083       .  S
C1882      C1883   1.404   1_556  A
C1882      H1887   1.083       .  S
C1884      H1888   1.083       .  S
C1885      C1890   1.404       .  A
C1885      C1894   1.404       .  A
C1890      C1891   1.400       .  A
C1890      H1895   1.083       .  S
C1891      C1892   1.408       .  A
C1891      H1896   1.083       .  S
C1892      C1893   1.408       .  A
C1893      C1894   1.398       .  A
C1893      H1897   1.083       .  S
C1894      H1898   1.083       .  S
C1899      C1900   1.406       .  A
C1899      C1904   1.402       .  A
C1899      H1909   1.083       .  S
C1900      C1905   1.488       .  S
C1900      C1901   1.406       .  A
C1901      C1902   1.394       .  A
C1901      H1906   1.083       .  S
C1902      C1903   1.405       .  A
C1902      H1907   1.083       .  S
C1903      C1904   1.407       .  A
C1904      H1908   1.083       .  S
C1905      C1910   1.409       .  A
C1905      C1914   1.404       .  A
C1910      C1911   1.404       .  A
C1910      H1915   1.083       .  S
C1911      C1912   1.404       .  A
C1911      H1916   1.083       .  S
C1912      C1913   1.404       .  A
C1913      C1914   1.391       .  A
C1913      H1917   1.084       .  S
C1914      H1918   1.083       .  S
C1919      C1920   1.405       .  A
C1919      C1924   1.403       .  A
C1919      H1929   1.083       .  S
C1920      C1925   1.482       .  S
C1920      C1921   1.404       .  A
C1921      C1922   1.394       .  A
C1921      H1926   1.083       .  S
C1922      C1923   1.405       .  A
C1922      H1927   1.083       .  S
C1923      C1924   1.409       .  A
C1924      H1928   1.083       .  S
C1925      C1930   1.406       .  A
C1925      C1934   1.403       .  A
C1930      C1931   1.404       .  A
C1930      H1935   1.083       .  S
C1931      C1932   1.408       .  A
C1931      H1936   1.083       .  S
C1932      C1933   1.404       .  A
C1933      C1934   1.392       .  A
C1933      H1937   1.083       .  S
C1934      H1938   1.083       .  S
C1939      N1940   1.357       .  A
C1939      N1944   1.360       .  A
C1939      C2255   1.483       .  S
N1940      C1941   1.357       .  A
C1941      N1942   1.357       .  A
C1941      C2226   1.482       .  S
N1942      C1943   1.360       .  A
C1943      N1944   1.362       .  A
C1943      C1947   1.469       .  S
C1945      N1946   1.359       .  A
C1945      N1950   1.359       .  A
C1945      C2529   1.481       .  S
N1946      C1947   1.359       .  A
C1947      N1948   1.360       .  A
N1948      C1949   1.359       .  A
C1949      N1950   1.360       .  A
C1949      C2195   1.487       .  S
C1951      N1952   1.360       .  A
C1951      N1956   1.358       .  A
C1951      C2146   1.481       .  S
N1952      C1953   1.362       .  A
C1953      N1954   1.360       .  A
C1953      C1959   1.470       .  S
N1954      C1955   1.358       .  A
C1955      N1956   1.358       .  A
C1955      C2166   1.484       .  S
C1957      N1958   1.360       .  A
C1957      N1962   1.357       .  A
C1957      C2429   1.480       .  S
N1958      C1959   1.361       .  A
C1959      N1960   1.360       .  A
N1960      C1961   1.358       .  A
C1961      N1962   1.357       .  A
C1961      C2135   1.483       .  S
C1963      N1964   1.360       .  A
C1963      N1968   1.356       .  A
C1963      C2095   1.480       .  S
N1964      C1965   1.362       .  A
C1965      N1966   1.361       .  A
C1965      C1973   1.469       .  S
N1966      C1967   1.357       .  A
C1967      N1968   1.355       .  A
C1967      C2066   1.481       .  S
C1969      N1970   1.358       .  A
C1969      N1974   1.360       .  A
C1969      C2369   1.476       .  S
N1970      C1971   1.358       .  A
C1971      N1972   1.357       .  A
C1971      C2026   1.479       .  S
N1972      C1973   1.358       .  A
C1973      N1974   1.360       .  A
O1975     Mn2001   2.087       .  S
C1976      C2215   1.487       .  S
C1976      O2009   1.272       .  A
C1976      O2006   1.273       .  A
O1977     Mn1984   2.166       .  S
O1977     Mn1995   2.126       .  S
O1977     Mn1999   2.172       .  S
O1978     Mn2012   2.095       .  S
O1978      C1988   1.272       .  A
O1979     Mn1995   2.103       .  S
O1979      C2002   1.273       .  A
O1980     Mn1999   2.110       .  S
O1980      C2007   1.254       .  A
O1981     Mn2001   1.950       .  S
O1981      C1997   1.217       .  S
C1982      C2175   1.478       .  S
C1982      O1985   1.252       .  A
C1982      O2008   1.219       .  S
O1983     Mn1984   2.166       .  S
O1983     Mn2017   2.122       .  S
O1983     Mn1999   2.170       .  S
Mn1984     O1989   2.108       .  S
O1986     Mn1993   2.092       .  S
O1986      C1988   1.273       .  A
C1987      C2126   1.475       .  S
C1987      O2013   1.252       .  A
C1987      O2000   1.219       .  S
C1988      C2246   1.484       .  S
O1989      C2014   1.252       .  A
O1990     Mn1993   2.121       .  S
O1990     Mn2012   2.123       .  S
O1991     Mn1995   1.964       .  S
O1991     Mn2017   1.955       .  S
O1991      C2014   1.219       .  S
C1992      C2086   1.483       .  S
C1992      O1994   1.272       .  A
Mn1993     O2006   2.099       .  S
O1994     Mn2017   2.086       .  S
Mn1995     O2011   2.098       .  S
Mn1995     O2005   1.955       .  S
O1996     Mn2001   2.084       .  S
C1997      C2075   1.476       .  S
C1997      O2015   1.252       .  A
C1998      C2115   1.483       .  S
C1998      O2011   1.273       .  A
O2000     Mn2003   1.961       .  S
Mn2001     O2019   1.956       .  S
C2002      C2155   1.486       .  S
Mn2003     O2010   2.089       .  S
Mn2003     O2018   2.097       .  S
Mn2003     O2008   1.955       .  S
C2004      C2055   1.483       .  S
C2004      O2020   1.272       .  A
O2005     Mn2017   1.962       .  S
O2005      C2007   1.218       .  S
C2007      C2235   1.476       .  S
O2009     Mn2012   2.094       .  S
C2014      C2186   1.479       .  S
O2016      C2021   1.252       .  A
Mn2017     O2020   2.094       .  S
O2019      C2021   1.218       .  S
C2021      C2035   1.477       .  S
C2022      C2023   1.406       .  A
C2022      C2027   1.400       .  A
C2022      H2032   1.083       .  S
C2023      C2028   1.486       .  S
C2024      C2025   1.395       .  A
C2024      H2029   1.083       .  S
C2025      H2030   1.083       .  S
C2026      C2350   1.407       .  A
C2027      C2349   1.406       .  A
C2027      H2354   1.083       .  S
C2028      C2033   1.409       .  A
C2028      C2037   1.404       .  A
H2031      C2350   1.083       .  S
C2033      C2034   1.403       .  A
C2033      H2038   1.082       .  S
C2034      C2035   1.405       .  A
C2034      H2039   1.083       .  S
C2035      C2036   1.404       .  A
C2036      C2037   1.390       .  A
C2042      C2043   1.403   1_455  A
C2042      C2047   1.396       .  A
C2042      H2052   1.083       .  S
C2043      C2048   1.477       .  S
C2043      C2044   1.403       .  A
C2044      C2368   1.400       .  A
C2044      H2372   1.083       .  S
C2045      C2367   1.401   1_554  A
C2045      C2369   1.405       .  A
C2045      H2050   1.083       .  S
C2046      C2292   1.477       .  S
C2046      C2368   1.406       .  A
C2046      C2047   1.405   1_655  A
C2047      H2051   1.083       .  S
C2048      C2053   1.402   1_655  A
C2048      C2057   1.403       .  A
H2049      C2367   1.083   1_554  S
C2053      C2054   1.397       .  A
C2054      C2055   1.408   1_455  A
C2055      C2056   1.408       .  A
C2056      C2057   1.399       .  A
C2056      H2060   1.083       .  S
C2057      H2061   1.083       .  S
C2062      C2063   1.407       .  A
C2062      C2067   1.404       .  A
C2062      H2072   1.083       .  S
C2063      C2068   1.486       .  S
C2064      C2065   1.392       .  A
C2064      H2069   1.083       .  S
C2065      H2070   1.083       .  S
C2066      C2067   1.407       .  A
C2067      H2071   1.083       .  S
C2068      C2073   1.404       .  A
C2073      C2074   1.390       .  A
C2073      H2078   1.083       .  S
C2074      C2075   1.404       .  A
C2074      H2079   1.083       .  S
C2076      C2077   1.405       .  A
C2076      H2080   1.083       .  S
C2077      H2081   1.082       .  S
C2082      C2087   1.401       .  A
C2082      H2092   1.083       .  S
C2083      C2088   1.485       .  S
C2083      C2084   1.404       .  A
C2084      C2085   1.394       .  A
C2084      H2089   1.083       .  S
C2085      C2086   1.405       .  A
C2085      H2090   1.083       .  S
C2087      H2091   1.083       .  S
C2088      C2097   1.404       .  A
C2093      C2094   1.404       .  A
C2093      H2098   1.083       .  S
C2094      H2099   1.082       .  S
C2095      C2096   1.405       .  A
C2096      C2097   1.393       .  A
C2096      H2100   1.084       .  S
C2097      H2101   1.083       .  S
C2102      C2103   1.402       .  A
C2102      C2430   1.394       .  A
C2102      H2112   1.084       .  S
C2103      C2108   1.479       .  S
C2104      C2105   1.402       .  A
C2104      H2109   1.083       .  S
C2105      H2110   1.083       .  S
C2106      C2280   1.481       .  S
C2106      C2430   1.406       .  A
C2107      C2425   1.396       .  A
C2107      C2429   1.406   1_556  A
C2107      H2111   1.083       .  S
C2108      C2113   1.404       .  A
C2108      C2117   1.402   1_565  A
C2113      C2114   1.401       .  A
C2113      H2118   1.083       .  S
C2114      C2115   1.408       .  A
C2114      H2119   1.083       .  S
C2115      C2116   1.407   1_565  A
C2116      C2117   1.395       .  A
C2116      H2120   1.083       .  S
C2117      H2121   1.084       .  S
C2122      C2127   1.392       .  A
C2122      H2132   1.083       .  S
C2123      C2128   1.487       .  S
C2123      C2124   1.408       .  A
C2124      C2125   1.404       .  A
C2124      H2129   1.083       .  S
C2125      C2126   1.405       .  A
C2125      H2130   1.083       .  S
C2127      H2131   1.084       .  S
C2128      C2133   1.405       .  A
C2128      C2137   1.406       .  A
C2133      C2134   1.393       .  A
C2133      H2138   1.083       .  S
C2134      C2458   1.405       .  A
C2134      H2139   1.083       .  S
C2135      C2457   1.405   1_554  A
C2135      C2136   1.408       .  A
C2136      C2460   1.402       .  A
C2136      H2140   1.083       .  S
C2137      C2459   1.403       .  A
C2137      H2464   1.083       .  S
H2141      C2460   1.083       .  S
C2142      C2143   1.405       .  A
C2142      C2147   1.404       .  A
C2142      H2152   1.083       .  S
C2143      C2148   1.481       .  S
C2143      C2144   1.403       .  A
C2144      C2145   1.395       .  A
C2145      C2146   1.405       .  A
C2146      C2147   1.407       .  A
C2147      H2151   1.083       .  S
C2148      C2153   1.405       .  A
C2148      C2157   1.403   1_565  A
C2153      C2154   1.402       .  A
C2153      H2158   1.083       .  S
C2154      C2155   1.408       .  A
C2154      H2159   1.083       .  S
C2155      C2156   1.407   1_565  A
C2156      C2157   1.396       .  A
C2156      H2160   1.083       .  S
C2157      H2161   1.083       .  S
C2162      C2163   1.407       .  A
C2162      C2167   1.403       .  A
C2162      H2172   1.083       .  S
C2163      C2168   1.489       .  S
C2163      C2164   1.406       .  A
C2164      C2165   1.393       .  A
C2165      C2166   1.404       .  A
C2166      C2167   1.408       .  A
C2167      H2171   1.083       .  S
C2168      C2173   1.409       .  A
C2168      C2177   1.405       .  A
C2173      C2174   1.405       .  A
C2173      H2178   1.082       .  S
C2174      C2175   1.405       .  A
C2174      H2179   1.083       .  S
C2175      C2176   1.403       .  A
C2176      C2177   1.391       .  A
C2176      H2180   1.083       .  S
C2177      H2181   1.083       .  S
C2182      C2183   1.409       .  A
C2182      C2187   1.405       .  A
C2182      H2192   1.083       .  S
C2183      C2188   1.489       .  S
C2183      C2184   1.404       .  A
C2184      C2185   1.392       .  A
C2184      H2189   1.083       .  S
C2185      C2186   1.404       .  A
C2185      H2190   1.083       .  S
C2186      C2187   1.405       .  A
C2187      H2191   1.083       .  S
C2188      C2193   1.406       .  A
C2188      C2197   1.406       .  A
C2193      C2194   1.404       .  A
C2193      H2198   1.083       .  S
C2194      C2518   1.409       .  A
C2194      H2522   1.083       .  S
C2195      C2517   1.409       .  A
C2195      C2519   1.405   1_554  A
C2196      C2518   1.405       .  A
C2196      C2197   1.394       .  A
C2196      H2200   1.083       .  S
C2197      H2201   1.083       .  S
H2199      C2517   1.083       .  S
C2202      C2203   1.406       .  A
C2202      C2530   1.403       .  A
C2202      H2535   1.083       .  S
C2203      C2208   1.484       .  S
C2203      C2204   1.404       .  A
C2204      C2205   1.397       .  A
C2204      H2209   1.083       .  S
C2205      C2206   1.405       .  A
C2205      H2210   1.083       .  S
C2206      C2268   1.482       .  S
C2206      C2530   1.407       .  A
C2207      C2525   1.402   1_554  A
C2207      C2529   1.407       .  A
C2207      H2211   1.083       .  S
C2208      C2213   1.404       .  A
C2208      C2217   1.404       .  A
H2212      C2525   1.083   1_554  S
C2213      C2214   1.401       .  A
C2213      H2218   1.083       .  S
C2214      C2215   1.408       .  A
C2214      H2219   1.083       .  S
C2215      C2216   1.408       .  A
C2216      C2217   1.398       .  A
C2216      H2220   1.083       .  S
C2217      H2221   1.083       .  S
C2222      C2223   1.406       .  A
C2222      C2227   1.402       .  A
C2222      H2232   1.083       .  S
C2223      C2228   1.488       .  S
C2223      C2224   1.406       .  A
C2224      C2225   1.394       .  A
C2224      H2229   1.083       .  S
C2225      C2226   1.404       .  A
C2225      H2230   1.083       .  S
C2226      C2227   1.407       .  A
C2227      H2231   1.083       .  S
C2228      C2233   1.409       .  A
C2228      C2237   1.404       .  A
C2233      C2234   1.404       .  A
C2233      H2238   1.083       .  S
C2234      C2235   1.404       .  A
C2234      H2239   1.083       .  S
C2235      C2236   1.404       .  A
C2236      C2237   1.391       .  A
C2236      H2240   1.084       .  S
C2237      H2241   1.083       .  S
C2242      C2243   1.404       .  A
C2242      C2247   1.403       .  A
C2242      H2252   1.083       .  S
C2243      C2248   1.480       .  S
C2243      C2244   1.403       .  A
C2244      C2245   1.394       .  A
C2244      H2249   1.083       .  S
C2245      C2246   1.406       .  A
C2245      H2250   1.083       .  S
C2246      C2247   1.409       .  A
C2247      H2251   1.083       .  S
C2248      C2253   1.405       .  A
C2248      C2257   1.402       .  A
C2253      C2254   1.405       .  A
C2253      H2258   1.083       .  S
C2254      C2255   1.408       .  A
C2254      H2259   1.083       .  S
C2255      C2256   1.405       .  A
C2256      C2257   1.393       .  A
C2256      H2260   1.083       .  S
C2257      H2261   1.084       .  S
C2262      N2263   1.357       .  A
C2262      N2267   1.360       .  A
C2262      C2578   1.482       .  S
N2263      C2264   1.357       .  A
C2264      N2265   1.358       .  A
C2264      C2549   1.484       .  S
N2265      C2266   1.361       .  A
C2266      N2267   1.362       .  A
C2266      C2270   1.471       .  S
C2268      N2269   1.360       .  A
C2268      N2273   1.359       .  A
N2269      C2270   1.361       .  A
C2270      N2271   1.360       .  A
N2271      C2272   1.359       .  A
C2272      N2273   1.359       .  A
C2272      C2518   1.487       .  S
C2274      N2275   1.359       .  A
C2274      N2279   1.357       .  A
C2274      C2469   1.479       .  S
N2275      C2276   1.361       .  A
C2276      N2277   1.361       .  A
C2276      C2282   1.471       .  S
N2277      C2278   1.359       .  A
C2278      N2279   1.358       .  A
C2278      C2489   1.487       .  S
C2280      N2281   1.359       .  A
C2280      N2285   1.356       .  A
N2281      C2282   1.361       .  A
C2282      N2283   1.361       .  A
N2283      C2284   1.359       .  A
C2284      N2285   1.357       .  A
C2284      C2458   1.483       .  S
C2286      N2287   1.361       .  A
C2286      N2291   1.356       .  A
C2286      C2418   1.485       .  S
N2287      C2288   1.363       .  A
C2288      N2289   1.361       .  A
C2288      C2296   1.469       .  S
N2289      C2290   1.357       .  A
C2290      N2291   1.355       .  A
C2290      C2389   1.482       .  S
C2292      N2293   1.359       .  A
C2292      N2297   1.360       .  A
N2293      C2294   1.358       .  A
C2294      N2295   1.357       .  A
C2294      C2349   1.478       .  S
N2295      C2296   1.359       .  A
C2296      N2297   1.360       .  A
O2298     Mn2324   2.081       .  S
C2299      C2538   1.486       .  S
C2299      O2332   1.272       .  A
C2299      O2329   1.273       .  A
O2300     Mn2307   2.161       .  S
O2300     Mn2318   2.126       .  S
O2300     Mn2322   2.174       .  S
O2301     Mn2335   2.092       .  S
O2301      C2311   1.271       .  A
O2302     Mn2318   2.098       .  S
O2302      C2325   1.272       .  A
O2303     Mn2322   2.106       .  S
O2303      C2330   1.253       .  A
O2304     Mn2324   1.953       .  S
O2304      C2320   1.218       .  S
C2305      C2498   1.480       .  S
C2305      O2308   1.253       .  A
C2305      O2331   1.218       .  S
O2306     Mn2307   2.168       .  S
O2306     Mn2340   2.124       .  S
O2306     Mn2322   2.168       .  S
Mn2307     O2312   2.107       .  S
O2309     Mn2316   2.095       .  S
O2309      C2311   1.273       .  A
C2310      C2449   1.473       .  S
C2310      O2336   1.251       .  A
C2310      O2323   1.218       .  S
C2311      C2569   1.484       .  S
O2312      C2337   1.252       .  A
O2313     Mn2316   2.119       .  S
O2313     Mn2335   2.127       .  S
O2314     Mn2318   1.967       .  S
O2314     Mn2340   1.962       .  S
O2314      C2337   1.219       .  S
C2315      C2409   1.483       .  S
C2315      O2317   1.273       .  A
Mn2316     O2329   2.099       .  S
O2317     Mn2340   2.097       .  S
Mn2318     O2334   2.103       .  S
Mn2318     O2328   1.958       .  S
O2319     Mn2324   2.085       .  S
C2320      C2398   1.474       .  S
C2320      O2338   1.252       .  A
C2321      C2438   1.483       .  S
C2321      O2334   1.274       .  A
O2323     Mn2326   1.956       .  S
Mn2324     O2342   1.957       .  S
C2325      C2478   1.484       .  S
Mn2326     O2333   2.079       .  S
Mn2326     O2341   2.092       .  S
Mn2326     O2331   1.954       .  S
C2327      C2378   1.484       .  S
C2327      O2343   1.273       .  A
O2328     Mn2340   1.963       .  S
O2328      C2330   1.219       .  S
C2330      C2558   1.475       .  S
O2332     Mn2335   2.092       .  S
C2337      C2509   1.478       .  S
O2339      C2344   1.252       .  A
Mn2340     O2343   2.101       .  S
O2342      C2344   1.218       .  S
C2344      C2358   1.477       .  S
C2345      C2346   1.405   1_554  A
C2345      C2350   1.400       .  A
C2345      H2355   1.083       .  S
C2346      C2351   1.486       .  S
C2347      C2348   1.395       .  A
C2347      H2352   1.083       .  S
C2348      H2353   1.083       .  S
C2351      C2356   1.409       .  A
C2351      C2360   1.404       .  A
C2356      C2357   1.403       .  A
C2356      H2361   1.082   1_655  S
C2357      C2358   1.405       .  A
C2357      H2362   1.083       .  S
C2358      C2359   1.404       .  A
C2359      C2360   1.390       .  A
C2365      C2366   1.405   1_455  A
C2365      C2370   1.397       .  A
C2365      H2375   1.083       .  S
C2366      C2371   1.482       .  S
C2366      C2367   1.405       .  A
C2368      H2373   1.083       .  S
C2369      C2370   1.403   1_654  A
C2370      H2374   1.084       .  S
C2371      C2376   1.403   1_655  A
C2371      C2380   1.405       .  A
C2376      C2377   1.396       .  A
C2377      C2378   1.408   1_455  A
C2378      C2379   1.407       .  A
C2379      C2380   1.400       .  A
C2379      H2383   1.083       .  S
C2380      H2384   1.083       .  S
C2385      C2386   1.407       .  A
C2385      C2390   1.403       .  A
C2385      H2395   1.083       .  S
C2386      C2391   1.487       .  S
C2387      C2388   1.392       .  A
C2387      H2392   1.083       .  S
C2388      H2393   1.083       .  S
C2389      C2390   1.408       .  A
C2390      H2394   1.083       .  S
C2391      C2396   1.405       .  A
C2396      C2397   1.391       .  A
C2396      H2401   1.083       .  S
C2397      C2398   1.403       .  A
C2397      H2402   1.083       .  S
C2399      C2400   1.404       .  A
C2399      H2403   1.083       .  S
C2400      H2404   1.082       .  S
C2405      C2410   1.397       .  A
C2405      H2415   1.083       .  S
C2406      C2411   1.483       .  S
C2406      C2407   1.404       .  A
C2407      C2408   1.401       .  A
C2407      H2412   1.083       .  S
C2408      C2409   1.407       .  A
C2408      H2413   1.083       .  S
C2410      H2414   1.083       .  S
C2411      C2420   1.402       .  A
C2416      C2417   1.404       .  A
C2416      H2421   1.083       .  S
C2417      H2422   1.082       .  S
C2418      C2419   1.407       .  A
C2419      C2420   1.394       .  A
C2419      H2423   1.083   1_655  S
C2420      H2424   1.083   1_655  S
C2425      C2426   1.403       .  A
C2425      H2435   1.083       .  S
C2426      C2431   1.480       .  S
C2427      C2428   1.401   1_556  A
C2427      H2432   1.083   1_556  S
C2428      H2433   1.083       .  S
C2430      H2434   1.083       .  S
C2431      C2436   1.405       .  A
C2431      C2440   1.402   1_565  A
C2436      C2437   1.401       .  A
C2436      H2441   1.083       .  S
C2437      C2438   1.407       .  A
C2437      H2442   1.083       .  S
C2438      C2439   1.408   1_565  A
C2439      C2440   1.396       .  A
C2439      H2443   1.083       .  S
C2440      H2444   1.084       .  S
C2445      C2450   1.391       .  A
C2445      H2455   1.083       .  S
C2446      C2451   1.484       .  S
C2446      C2447   1.408       .  A
C2447      C2448   1.403       .  A
C2447      H2452   1.083       .  S
C2448      C2449   1.405       .  A
C2448      H2453   1.083       .  S
C2450      H2454   1.084       .  S
C2451      C2456   1.405       .  A
C2451      C2460   1.405   1_556  A
C2456      C2457   1.393       .  A
C2456      H2461   1.083       .  S
C2457      H2462   1.083       .  S
C2458      C2459   1.407       .  A
C2459      H2463   1.083       .  S
C2465      C2466   1.405       .  A
C2465      C2470   1.403       .  A
C2465      H2475   1.083       .  S
C2466      C2471   1.479       .  S
C2466      C2467   1.402       .  A
C2467      C2468   1.394       .  A
C2468      C2469   1.404       .  A
C2469      C2470   1.407       .  A
C2470      H2474   1.083       .  S
C2471      C2476   1.403       .  A
C2471      C2480   1.403   1_565  A
C2476      C2477   1.401       .  A
C2476      H2481   1.083       .  S
C2477      C2478   1.408       .  A
C2477      H2482   1.082       .  S
C2478      C2479   1.407   1_565  A
C2479      C2480   1.396       .  A
C2479      H2483   1.083       .  S
C2480      H2484   1.083       .  S
C2485      C2486   1.408       .  A
C2485      C2490   1.404       .  A
C2485      H2495   1.082       .  S
C2486      C2491   1.495       .  S
C2486      C2487   1.408       .  A
C2487      C2488   1.395       .  A
C2488      C2489   1.405       .  A
C2489      C2490   1.408       .  A
C2490      H2494   1.083       .  S
C2491      C2496   1.411       .  A
C2491      C2500   1.406       .  A
C2496      C2497   1.406       .  A
C2496      H2501   1.082       .  S
C2497      C2498   1.404       .  A
C2497      H2502   1.083       .  S
C2498      C2499   1.404       .  A
C2499      C2500   1.392       .  A
C2499      H2503   1.083       .  S
C2500      H2504   1.082       .  S
C2505      C2506   1.409       .  A
C2505      C2510   1.405       .  A
C2505      H2515   1.083       .  S
C2506      C2511   1.488       .  S
C2506      C2507   1.404       .  A
C2507      C2508   1.392       .  A
C2507      H2512   1.083       .  S
C2508      C2509   1.403       .  A
C2508      H2513   1.083       .  S
C2509      C2510   1.406       .  A
C2510      H2514   1.083       .  S
C2511      C2516   1.406   1_556  A
C2511      C2520   1.406       .  A
C2516      C2517   1.404       .  A
C2516      H2521   1.083       .  S
C2519      C2520   1.395       .  A
C2519      H2523   1.083       .  S
C2520      H2524   1.083       .  S
C2525      C2526   1.405       .  A
C2526      C2531   1.482       .  S
C2526      C2527   1.404       .  A
C2527      C2528   1.397       .  A
C2527      H2532   1.083       .  S
C2528      C2529   1.405   1_556  A
C2528      H2533   1.083       .  S
C2530      H2534   1.083       .  S
C2531      C2536   1.404       .  A
C2531      C2540   1.404       .  A
C2536      C2537   1.400       .  A
C2536      H2541   1.083       .  S
C2537      C2538   1.408       .  A
C2537      H2542   1.083       .  S
C2538      C2539   1.408       .  A
C2539      C2540   1.398       .  A
C2539      H2543   1.083       .  S
C2540      H2544   1.083       .  S
C2545      C2546   1.406       .  A
C2545      C2550   1.403       .  A
C2545      H2555   1.083       .  S
C2546      C2551   1.487       .  S
C2546      C2547   1.405       .  A
C2547      C2548   1.394       .  A
C2547      H2552   1.083       .  S
C2548      C2549   1.405       .  A
C2548      H2553   1.083       .  S
C2549      C2550   1.408       .  A
C2550      H2554   1.083       .  S
C2551      C2556   1.409       .  A
C2551      C2560   1.405       .  A
C2556      C2557   1.404       .  A
C2556      H2561   1.083       .  S
C2557      C2558   1.404       .  A
C2557      H2562   1.083       .  S
C2558      C2559   1.403       .  A
C2559      C2560   1.391       .  A
C2559      H2563   1.083       .  S
C2560      H2564   1.083       .  S
C2565      C2566   1.405       .  A
C2565      C2570   1.403       .  A
C2565      H2575   1.083       .  S
C2566      C2571   1.482       .  S
C2566      C2567   1.404       .  A
C2567      C2568   1.394       .  A
C2567      H2572   1.083       .  S
C2568      C2569   1.405       .  A
C2568      H2573   1.083       .  S
C2569      C2570   1.410       .  A
C2570      H2574   1.083       .  S
C2571      C2576   1.406       .  A
C2571      C2580   1.403       .  A
C2576      C2577   1.405       .  A
C2576      H2581   1.083       .  S
C2577      C2578   1.408       .  A
C2577      H2582   1.083       .  S
C2578      C2579   1.405       .  A
C2579      C2580   1.393       .  A
C2579      H2583   1.083       .  S
C2580      H2584   1.084       .  S
