geometry optimzed in LAMMPS
_audit_creation_date              2020-11-30 
_audit_creation_method            'lammps2cif' 
_symmetry_space_group_name_H-M    'P1' 
_symmetry_Int_Tables_number       1 
_symmetry_cell_setting            triclinic 
loop_ 
_symmetry_equiv_pos_as_xyz 
  x,y,z 
_cell_length_a                    47.05813644 
_cell_length_b                    47.042263627035844 
_cell_length_c                    33.45662959514031 
_cell_angle_alpha                 90.27059679669433 
_cell_angle_beta                  89.66049676736202 
_cell_angle_gamma                 89.98465539619326 
loop_ 
_atom_site_label 
_atom_site_type_symbol 
_atom_site_fract_x 
_atom_site_fract_y 
_atom_site_fract_z 
_atom_site_charge 
C1          C  0.17263300  0.49813679  0.16303820     0.79800
N2          N  0.15808995  0.50047643  0.19816865    -0.78500
C3          C  0.12969052  0.00543354  0.19830897     0.82300
N4          N  0.11566038  0.00809492  0.16326704    -0.78400
C5          C  0.12996250  0.00543957  0.12814795     0.82400
N6          N  0.15833716  0.50033033  0.12802556    -0.80100
C7          C  0.38708548  0.49599553  0.16503803     0.79800
N8          N  0.40240590  0.49663174  0.13050185    -0.78500
C9          C  0.43117181  0.49761152  0.13137158     0.82300
N10         N  0.44488848  0.49782624  0.16687700    -0.78400
C11         C  0.42981241  0.49732343  0.20152758     0.82400
N12         N  0.40098309  0.49622528  0.20061744    -0.80100
C13         C  0.03168398  0.14522544  0.16645856     0.79800
N14         N  0.03051538  0.13095235  0.13101154    -0.78500
C15         C  0.02657624  0.10235488  0.13034473     0.82300
N16         N  0.02411677  0.08787327  0.16513743    -0.78400
C17         C  0.02579137  0.10190845  0.20052944     0.82400
N18         N  0.02960766  0.13047022  0.20116511    -0.80100
C19         C  0.03895718  0.35947916  0.16397874     0.79800
N20         N  0.03768248  0.37424778  0.19896203    -0.78500
C21         C  0.03517552  0.40296072  0.19887161     0.82300
N22         N  0.03428244  0.41715989  0.16375342    -0.78400
C23         C  0.03542504  0.40260292  0.12872595     0.82400
N24         N  0.03776434  0.37385181  0.12883270    -0.80100
C25         C  0.03570145  0.41803589  0.09106060     0.42100
N26         N  0.02163970  0.44247202  0.04133834     0.01000
C27         C  0.10152673  0.03170908  0.25520556    -0.06900
H28         H  0.10378457  0.05393195  0.08050109     0.06500
C29         C  0.00075130  0.07428357  0.07363671    -0.07300
Co30       Co  0.07022105  0.46890352  0.33050496     0.74200
N31         N  0.08744755  0.02138414  0.04097697    -0.26400
Co32       Co  0.06357544  0.04233712  0.33107194     0.74100
C33         C  0.02558224  0.08698872  0.09231969     0.42200
N34         N  0.47074261  0.01107878  0.04296797     0.00600
N35         N  0.03914401  0.06233884  0.04183704     0.00700
N36         N  0.10587371  0.48377760  0.25701389    -0.47300
H37         H  0.08262215  0.42854837  0.07878172     0.06500
N38         N  0.09017691  0.49343781  0.04041727     0.01000
N39         N  0.03874768  0.06209605  0.28806055     0.00700
C40         C  0.02491515  0.08611364  0.23785054     0.42300
N41         N  0.47336546  0.48312782  0.04260476    -0.25900
C42         C  0.06000717  0.43075913  0.25600085    -0.06800
N43         N  0.01236903  0.42656879  0.07128400    -0.47000
N44         N  0.04811277  0.07797842  0.25820516    -0.47200
C45         C  0.03531337  0.41871235  0.23644395     0.42100
N46         N  0.08994743  0.49341082  0.28689245     0.01000
N47         N  0.47259643  0.48306514  0.28883711    -0.25900
N48         N  0.04957007  0.44510796  0.04083488    -0.26400
N49         N  0.46997131  0.01100103  0.28887980     0.00600
H50         H  0.45553851  0.45002054  0.25086536     0.06500
H51         H  0.47797093  0.07545577  0.24959568     0.06500
N52         N  0.08715663  0.02134886  0.28671673    -0.26500
N53         N  0.01121533  0.05958701  0.04238797    -0.26100
N54         N  0.02133058  0.44267754  0.28720322     0.01000
C55         C  0.11459136  0.50681314  0.09058757     0.42400
C56         C  0.45919328  0.47246616  0.07398818    -0.07300
N57         N  0.01081203  0.05933404  0.28830271    -0.26100
H58         H  0.47861152  0.07607617  0.08192850     0.06500
N59         N  0.10623541  0.48380814  0.06972161    -0.47300
H60         H  0.45748480  0.45023405  0.08169921     0.06500
C61         C  0.44476064  0.99693505  0.23962973     0.42200
C62         C  0.06036147  0.43038115  0.07138735    -0.06800
Co63       Co  0.49678283  0.46230457  0.33162858     0.73800
N64         N  0.45530236  0.02048494  0.07352615    -0.47000
C65         C  0.11403138  0.00676419  0.23605252     0.42500
N66         N  0.01198451  0.42700835  0.25698902    -0.47000
Co67       Co  0.49016088  0.03570823  0.99895235     0.73900
C68         C  0.00015280  0.07372957  0.25729596    -0.07200
C69         C  0.10202950  0.03177469  0.07213030    -0.06900
N70         N  0.04927765  0.44525845  0.28713925    -0.26400
N71         N  0.04866904  0.07850939  0.07140381    -0.47200
H72         H  0.10322601  0.05385875  0.24704393     0.06500
C73         C  0.45746325  0.47229118  0.25853023    -0.07300
Cl74       Cl  0.03017531  0.00232523  0.33136609    -0.50300
C75         C  0.44735617  0.49724539  0.09412204     0.42200
H76         H  0.08225083  0.42897421  0.24809018     0.06400
N77         N  0.45367546  0.02027197  0.25949630    -0.47000
C78         C  0.05228646  0.28327301  0.19690521    -0.28000
C79         C  0.04198143  0.26786670  0.16403184     0.01600
C80         C  0.03148710  0.28273010  0.13078101     0.29700
C81         C  0.03121102  0.31249578  0.13091039    -0.19800
C82         C  0.04107734  0.32800159  0.16403061    -0.29200
C83         C  0.05206666  0.31303848  0.19704329     0.43700
C84         C  0.04091600  0.23635923  0.16557356     0.04900
O85         O  0.51967823  0.26832670  0.09919848    -0.57700
H86         H  0.02238290  0.32341997  0.10539403     0.17900
O87         O  0.06258850  0.32718038  0.22969995    -0.64400
H88         H  0.06050458  0.27213537  0.22265447     0.16300
C89         C  0.05307320  0.21949608  0.13507321     0.28600
C90         C  0.04975229  0.18993755  0.13563249    -0.25300
C91         C  0.03524664  0.17653762  0.16714212    -0.24600
C92         C  0.02413603  0.19338938  0.19862266     0.40000
C93         C  0.02698009  0.22300270  0.19757827    -0.27000
O94         O  0.06847090  0.23168931  0.10475174    -0.58900
H95         H  0.05895711  0.17742403  0.11156520     0.15600
O96         O  0.50990111  0.18129553  0.23011600    -0.60400
H97         H  0.51767852  0.23565152  0.22142830     0.14100
H98         H  0.08281675  0.33094983  0.22317099     0.46000
H99         H  0.08851276  0.23097828  0.11368571     0.41300
H100        H  0.48988563  0.17970293  0.22126743     0.44800
H101        H  0.53271762  0.27151679  0.07625290     0.36300
C102        C  0.24883883  0.98108228  0.13233236    -0.28000
C103        C  0.26400510  0.49321238  0.16416008     0.01600
C104        C  0.24896641  0.50668638  0.19541618     0.29700
C105        C  0.21926593  0.50738730  0.19495009    -0.19800
C106        C  0.20398719  0.49534472  0.16318276    -0.29200
C107        C  0.21907447  0.98225765  0.13147752     0.43700
C108        C  0.29551678  0.49263208  0.16386166     0.04900
O109        O  0.26320505  0.52084921  0.22515613    -0.57700
H110        H  0.20820498  0.51829581  0.21902326     0.17900
O111        O  0.20499183  0.96991707  0.10008448    -0.64400
H112        H  0.26013879  0.97070916  0.10800478     0.16300
C113        C  0.31086791  0.98207400  0.19663912     0.28600
C114        C  0.34056155  0.98347070  0.19673133    -0.25300
C115        C  0.35557867  0.49466197  0.16394252    -0.24600
C116        C  0.34013538  0.50437473  0.13055386     0.40000
C117        C  0.31041830  0.50326977  0.13074664    -0.27000
O118        O  0.29707382  0.97017370  0.22868028    -0.58900
H119        H  0.35186841  0.97540314  0.22240977     0.15600
O120        O  0.35372674  0.51550546  0.09780385    -0.60400
H121        H  0.29892226  0.51137185  0.10524339     0.14100
H122        H  0.20600138  0.98400418  0.07815955     0.46000
H123        H  0.29224793  0.95057263  0.22005670     0.41300
H124        H  0.35624604  0.53598093  0.10402271     0.44800
H125        H  0.25894508  0.51031799  0.25009943     0.36300
C126        C  0.17263606  0.49814163  0.49636956     0.79800
N127        N  0.15809446  0.50047973  0.53150125    -0.78500
C128        C  0.12969451  0.00543485  0.53164446     0.82300
N129        N  0.11566274  0.00809599  0.49660364    -0.78400
C130        C  0.12996356  0.00544255  0.46148302     0.82400
N131        N  0.15833893  0.50033461  0.46135783    -0.80100
C132        C  0.38708778  0.49599011  0.49837273     0.79800
N133        N  0.40240828  0.49662677  0.46383675    -0.78500
C134        C  0.43117404  0.49760668  0.46470629     0.82300
N135        N  0.44489091  0.49782066  0.50021126    -0.78400
C136        C  0.42981497  0.49731710  0.53486170     0.82400
N137        N  0.40098563  0.49621936  0.53395199    -0.80100
C138        C  0.03168217  0.14522310  0.49979934     0.79800
N139        N  0.03051252  0.13095010  0.46435249    -0.78500
C140        C  0.02657600  0.10235238  0.46368598     0.82300
N141        N  0.02412048  0.08787039  0.49847877    -0.78400
C142        C  0.02579659  0.10190561  0.53387054     0.82400
N143        N  0.02960974  0.13046776  0.53450613    -0.80100
C144        C  0.03894512  0.35947673  0.49730958     0.79800
N145        N  0.03767267  0.37424671  0.53229151    -0.78500
C146        C  0.03517518  0.40296017  0.53219908     0.82300
N147        N  0.03428882  0.41715873  0.49708012    -0.78400
C148        C  0.03542852  0.40260044  0.46205360     0.82400
N149        N  0.03775831  0.37384845  0.46216221    -0.80100
C150        C  0.03570585  0.41803247  0.42438740     0.42100
N151        N  0.02164298  0.44247265  0.37466952     0.01000
C152        C  0.10153237  0.03170596  0.58854626    -0.06900
H153        H  0.10378233  0.05393553  0.41383954     0.06500
C154        C  0.00075008  0.07428235  0.40697700    -0.07300
Co155      Co  0.07022342  0.46889588  0.66383607     0.74200
N156        N  0.08744730  0.02138852  0.37431223    -0.26400
Co157      Co  0.06357829  0.04232962  0.66440985     0.74100
C158        C  0.02558118  0.08698662  0.42566095     0.42200
N159        N  0.47074334  0.01107826  0.37630361     0.00600
N160        N  0.03914247  0.06234106  0.37517432     0.00700
N161        N  0.10587770  0.48377378  0.59034622    -0.47300
H162        H  0.08262611  0.42854894  0.41211068     0.06500
N163        N  0.09017768  0.49344227  0.37375071     0.01000
N164        N  0.03875211  0.06209042  0.62139853     0.00700
C165        C  0.02492047  0.08611096  0.57119125     0.42300
N166        N  0.47336773  0.48312741  0.37593968    -0.25900
C167        C  0.06000842  0.43075713  0.58932763    -0.06800
N168        N  0.01237319  0.42656634  0.40461233    -0.47000
N169        N  0.04811785  0.07797484  0.59154574    -0.47200
C170        C  0.03531412  0.41871186  0.56977064     0.42100
N171        N  0.08995078  0.49340498  0.62022554     0.01000
N172        N  0.47259959  0.48305860  0.62216917    -0.25900
N173        N  0.04957321  0.44511003  0.37416630    -0.26400
N174        N  0.46997535  0.01099449  0.62221125     0.00600
H175        H  0.45553998  0.45001397  0.58419905     0.06500
H176        H  0.47797622  0.07545133  0.58293200     0.06500
N177        N  0.08716061  0.02134337  0.62005431    -0.26500
N178        N  0.01121389  0.05958836  0.37572558    -0.26100
N179        N  0.02133263  0.44267141  0.62053530     0.01000
C180        C  0.11459100  0.50681664  0.42392310     0.42400
C181        C  0.45919637  0.47246426  0.40732259    -0.07300
N182        N  0.01081655  0.05932779  0.62163831    -0.26100
H183        H  0.47861037  0.07607336  0.41527046     0.06500
N184        N  0.10623620  0.48381219  0.40305490    -0.47300
H185        H  0.45748890  0.45023187  0.41503250     0.06500
C186        C  0.44476339  0.99692840  0.57296300     0.42200
C187        C  0.06036531  0.43038143  0.40471680    -0.06800
Co188      Co  0.49678483  0.46229792  0.66496085     0.73800
N189        N  0.45530276  0.02048281  0.40686235    -0.47000
C190        C  0.11403680  0.00676247  0.56938959     0.42500
N191        N  0.01198583  0.42700449  0.59031940    -0.47000
Co192      Co  0.49015982  0.03570979  0.33228847     0.73900
C193        C  0.00015792  0.07372498  0.59063305    -0.07200
C194        C  0.10202836  0.03177851  0.40546699    -0.06900
N195        N  0.04927960  0.44525318  0.62046939    -0.26400
N196        N  0.04866769  0.07850972  0.40474285    -0.47200
H197        H  0.10323259  0.05385633  0.58038871     0.06500
C198        C  0.45746573  0.47228467  0.59186311    -0.07300
Cl199      Cl  0.03017769  0.00231824  0.66469957    -0.50300
C200        C  0.44735798  0.49724241  0.42745702     0.42200
H201        H  0.08225180  0.42897367  0.58141472     0.06400
N202        N  0.45367932  0.02026547  0.59282811    -0.47000
C203        C  0.05226685  0.28327134  0.53024255    -0.28000
C204        C  0.04196159  0.26786470  0.49736980     0.01600
C205        C  0.03146509  0.28272728  0.46411972     0.29700
C206        C  0.03119048  0.31249294  0.46424704    -0.19800
C207        C  0.04105927  0.32799909  0.49736527    -0.29200
C208        C  0.05204714  0.31303654  0.53037963     0.43700
C209        C  0.04089945  0.23635745  0.49891107     0.04900
O210        O  0.51965498  0.26832293  0.43253944    -0.57700
H211        H  0.02236224  0.32341695  0.43873062     0.17900
O212        O  0.06256784  0.32717847  0.56303708    -0.64400
H213        H  0.06048537  0.27213410  0.55599192     0.16300
C214        C  0.05305880  0.21949597  0.46841067     0.28600
C215        C  0.04974350  0.18993691  0.46897177    -0.25300
C216        C  0.03524012  0.17653546  0.50048206    -0.24600
C217        C  0.02412571  0.19338588  0.53196111     0.40000
C218        C  0.02696545  0.22299949  0.53091607    -0.27000
O219        O  0.06845233  0.23169154  0.43808684    -0.58900
H220        H  0.05895025  0.17742435  0.44490494     0.15600
O221        O  0.50989108  0.18129025  0.56345280    -0.60400
H222        H  0.51766251  0.23564726  0.55476537     0.14100
H223        H  0.08278876  0.33097394  0.55649265     0.46000
H224        H  0.08849629  0.23097370  0.44701079     0.41300
H225        H  0.48987349  0.17970913  0.55460974     0.44800
H226        H  0.53269147  0.27151391  0.40959097     0.36300
C227        C  0.24883989  0.98107106  0.46567699    -0.28000
C228        C  0.26400723  0.49321900  0.49749088     0.01600
C229        C  0.24896967  0.50671340  0.52873048     0.29700
C230        C  0.21926932  0.50741435  0.52826479    -0.19800
C231        C  0.20398999  0.49535265  0.49651248    -0.29200
C232        C  0.21907560  0.98224821  0.46482104     0.43700
C233        C  0.29551858  0.49263490  0.49719512     0.04900
O234        O  0.26320942  0.52089494  0.55845191    -0.57700
H235        H  0.20820864  0.51833720  0.55232539     0.17900
O236        O  0.20499135  0.96989128  0.43344207    -0.64400
H237        H  0.26013897  0.97068257  0.44136156     0.16300
C238        C  0.31086733  0.98209401  0.52998620     0.28600
C239        C  0.34056115  0.98348656  0.53007776    -0.25300
C240        C  0.35558065  0.49465849  0.49727695    -0.24600
C241        C  0.34013895  0.50435491  0.46387711     0.40000
C242        C  0.31042192  0.50325244  0.46406926    -0.27000
O243        O  0.29707096  0.97021666  0.56204260    -0.58900
H244        H  0.35186603  0.97543314  0.55576672     0.15600
O245        O  0.35373176  0.51546721  0.43111583    -0.60400
H246        H  0.29892739  0.51134152  0.43855647     0.14100
H247        H  0.20599985  0.98396696  0.41150254     0.46000
H248        H  0.29222209  0.95061803  0.55343339     0.41300
H249        H  0.35623165  0.53595034  0.43729962     0.44800
H250        H  0.25894935  0.51038024  0.58340899     0.36300
C251        C  0.17263591  0.49812572  0.82970306     0.79800
N252        N  0.15809460  0.50046504  0.86483510    -0.78500
C253        C  0.12969489  0.00542094  0.86497863     0.82300
N254        N  0.11566283  0.00808141  0.82993821    -0.78400
C255        C  0.12996307  0.00542580  0.79481771     0.82400
N256        N  0.15833812  0.50031819  0.79469198    -0.80100
C257        C  0.38708645  0.49601770  0.83170241     0.79800
N258        N  0.40240576  0.49664426  0.79716514    -0.78500
C259        C  0.43117217  0.49760721  0.79803349     0.82300
N260        N  0.44489009  0.49781656  0.83353787    -0.78400
C261        C  0.42981484  0.49732468  0.86818937     0.82400
N262        N  0.40098494  0.49624230  0.86728112    -0.80100
C263        C  0.03166868  0.14522545  0.83312707     0.79800
N264        N  0.03050243  0.13095218  0.79767990    -0.78500
C265        C  0.02657184  0.10235351  0.79701342     0.82300
N266        N  0.02411898  0.08787123  0.83180610    -0.78400
C267        C  0.02579095  0.10190689  0.86719774     0.82400
N268        N  0.02959807  0.13046977  0.86783365    -0.80100
C269        C  0.03895383  0.35947701  0.83064770     0.79800
N270        N  0.03767835  0.37424644  0.86562996    -0.78500
C271        C  0.03517497  0.40295950  0.86553782     0.82300
N272        N  0.03428640  0.41715808  0.83041874    -0.78400
C273        C  0.03543004  0.40260006  0.79539203     0.82400
N274        N  0.03776527  0.37384869  0.79550064    -0.80100
C275        C  0.03570696  0.41803148  0.75772531     0.42100
N276        N  0.02164465  0.44246647  0.70800231     0.01000
C277        C  0.10153212  0.03170025  0.92187296    -0.06900
H278        H  0.10378160  0.05392214  0.74718278     0.06500
C279        C  0.00074971  0.07428038  0.74030490    -0.07300
Co280      Co  0.07021982  0.46889877  0.99717295     0.74200
N281        N  0.08744838  0.02137819  0.70764918    -0.26400
Co282      Co  0.06357699  0.04233238  0.99773576     0.74100
C283        C  0.02557973  0.08698658  0.75898911     0.42200
N284        N  0.47074466  0.01107201  0.70963351     0.00600
N285        N  0.03914410  0.06233325  0.70851138     0.00700
N286        N  0.10587690  0.48376847  0.92368488    -0.47300
H287        H  0.08262754  0.42854379  0.74544474     0.06500
N288        N  0.09017979  0.49343211  0.70708319     0.01000
N289        N  0.03875003  0.06209093  0.95472350     0.00700
C290        C  0.02491677  0.08611205  0.90451795     0.42300
N291        N  0.47336868  0.48312100  0.70927110    -0.25900
C292        C  0.06000587  0.43075545  0.92266911    -0.06800
N293        N  0.01237440  0.42656413  0.73794904    -0.47000
N294        N  0.04811507  0.07797402  0.92486888    -0.47200
C295        C  0.03531204  0.41871123  0.90310983     0.42100
N296        N  0.08994871  0.49340349  0.95356030     0.01000
N297        N  0.47259687  0.48306405  0.95550066    -0.25900
N298        N  0.04957503  0.44510217  0.70749728    -0.26400
N299        N  0.46997204  0.01099966  0.95554392     0.00600
H300        H  0.45554103  0.45002025  0.91752545     0.06500
H301        H  0.47797251  0.07545728  0.91626560     0.06500
N302        N  0.08715886  0.02134177  0.95338250    -0.26500
N303        N  0.01121537  0.05958190  0.70905900    -0.26100
N304        N  0.02132905  0.44267441  0.95387077     0.01000
C305        C  0.11459077  0.50680279  0.75725873     0.42400
C306        C  0.45919477  0.47245914  0.74065291    -0.07300
N307        N  0.01081417  0.05933088  0.95496742    -0.26100
H308        H  0.47860938  0.07607457  0.74859304     0.06500
N309        N  0.10623754  0.48379984  0.73638656    -0.47300
H310        H  0.45748572  0.45022698  0.74836353     0.06500
C311        C  0.44476396  0.99693450  0.90629093     0.42200
C312        C  0.06036684  0.43037584  0.73805017    -0.06800
Co313      Co  0.49678099  0.46230321  0.99829469     0.73800
N314        N  0.45530212  0.02047792  0.74018908    -0.47000
C315        C  0.11403785  0.00675418  0.90272381     0.42500
N316        N  0.01198299  0.42700687  0.92365485    -0.47000
Co317      Co  0.49016294  0.03570300  0.66562078     0.73900
C318        C  0.00015455  0.07372888  0.92396368    -0.07200
C319        C  0.10202820  0.03176579  0.73880643    -0.06900
N320        N  0.04927622  0.44525408  0.95380793    -0.26400
N321        N  0.04866767  0.07850532  0.73807740    -0.47200
H322        H  0.10323337  0.05384962  0.91371053     0.06500
C323        C  0.45746555  0.47229072  0.92519139    -0.07300
Cl324      Cl  0.03017516  0.00232215  0.99803155    -0.50300
C325        C  0.44735504  0.49723852  0.76078367     0.42200
H326        H  0.08224959  0.42897020  0.91475892     0.06400
N327        N  0.45367761  0.02027108  0.92615923    -0.47000
C328        C  0.05227323  0.28327097  0.86357895    -0.28000
C329        C  0.04196283  0.26786551  0.83070839     0.01600
C330        C  0.03146649  0.28272889  0.79745912     0.29700
C331        C  0.03119578  0.31249437  0.79758553    -0.19800
C332        C  0.04106859  0.32799962  0.83070214    -0.29200
C333        C  0.05205804  0.31303637  0.86371463     0.43700
C334        C  0.04089655  0.23635866  0.83224880     0.04900
O335        O  0.51965004  0.26832525  0.76588336    -0.57700
H336        H  0.02236665  0.32341901  0.77207025     0.17900
O337        O  0.06258446  0.32717809  0.89636853    -0.64400
H338        H  0.06049229  0.27213280  0.88932716     0.16300
C339        C  0.05305567  0.21949708  0.80174857     0.28600
C340        C  0.04973486  0.18993877  0.80230488    -0.25300
C341        C  0.03522681  0.17653776  0.83381118    -0.24600
C342        C  0.02411271  0.19338806  0.86529084     0.40000
C343        C  0.02695747  0.22300139  0.86424993    -0.27000
O344        O  0.06845501  0.23169184  0.77142995    -0.58900
H345        H  0.05894212  0.17742621  0.77823845     0.15600
O346        O  0.50987358  0.18129232  0.89677942    -0.60400
H347        H  0.51765407  0.23564936  0.88809993     0.14100
H348        H  0.08281084  0.33095099  0.88983188     0.46000
H349        H  0.08849611  0.23098310  0.78036793     0.41300
H350        H  0.48985691  0.17971211  0.88793193     0.44800
H351        H  0.53268768  0.27150989  0.74293438     0.36300
C352        C  0.24884549  0.98109764  0.79898558    -0.28000
C353        C  0.26400870  0.49323013  0.83081406     0.01600
C354        C  0.24896758  0.50669549  0.86207448     0.29700
C355        C  0.21926720  0.50738694  0.86161155    -0.19800
C356        C  0.20399071  0.49534151  0.82984417    -0.29200
C357        C  0.21908049  0.98226199  0.79813495     0.43700
C358        C  0.29551968  0.49265666  0.83051795     0.04900
O359        O  0.26320350  0.52085746  0.89181779    -0.57700
H360        H  0.20820428  0.51828973  0.88568801     0.17900
O361        O  0.20499996  0.96991742  0.76674301    -0.64400
H362        H  0.26014818  0.97073066  0.77465532     0.16300
C363        C  0.31086956  0.98208380  0.86328783     0.28600
C364        C  0.34056274  0.98348312  0.86338491    -0.25300
C365        C  0.35558011  0.49469277  0.83060812    -0.24600
C366        C  0.34013826  0.50442413  0.79722925     0.40000
C367        C  0.31042121  0.50331521  0.79741657    -0.27000
O368        O  0.29707437  0.97016640  0.89531536    -0.58900
H369        H  0.35186925  0.97540212  0.88905529     0.15600
O370        O  0.35373149  0.51557605  0.76449516    -0.60400
H371        H  0.29892525  0.51142936  0.77192086     0.14100
H372        H  0.20601157  0.98400127  0.74481413     0.46000
H373        H  0.29225487  0.95056763  0.88667410     0.41300
H374        H  0.35622771  0.53605261  0.77072565     0.44800
H375        H  0.25895297  0.51031685  0.91675611     0.36300
C376        C  0.17263304  0.99814303  0.16303975     0.79800
N377        N  0.15809014  0.00048348  0.19817023    -0.78500
C378        C  0.12968998  0.50542431  0.19830729     0.82300
N379        N  0.11565968  0.50808460  0.16326536    -0.78400
C380        C  0.12996201  0.50543019  0.12814634     0.82400
N381        N  0.15833728  0.00033746  0.12802714    -0.80100
C382        C  0.38708565  0.99598742  0.16503926     0.79800
N383        N  0.40240616  0.99662252  0.13050309    -0.78500
C384        C  0.43117217  0.99759971  0.13137288     0.82300
N385        N  0.44488882  0.99781335  0.16687831    -0.78400
C386        C  0.42981271  0.99731194  0.20152890     0.82400
N387        N  0.40098326  0.99621637  0.20061873    -0.80100
C388        C  0.03169722  0.64522613  0.16645802     0.79800
N389        N  0.03052794  0.63095365  0.13101054    -0.78500
C390        C  0.02658730  0.60235638  0.13034289     0.82300
N391        N  0.02412682  0.58787442  0.16513515    -0.78400
C392        C  0.02580198  0.60190903  0.20052752     0.82400
N393        N  0.02961984  0.63047053  0.20116405    -0.80100
C394        C  0.03897084  0.85947913  0.16398008     0.79800
N395        N  0.03769574  0.87424758  0.19896345    -0.78500
C396        C  0.03518764  0.90296040  0.19887322     0.82300
N397        N  0.03429361  0.91715964  0.16375515    -0.78400
C398        C  0.03543645  0.90260281  0.12872759     0.82400
N399        N  0.03777691  0.87385180  0.12883413    -0.80100
C400        C  0.03571126  0.91803587  0.09106229     0.42100
N401        N  0.02164687  0.94247002  0.04133960     0.01000
C402        C  0.10152958  0.53170222  0.25520441    -0.06900
H403        H  0.10379011  0.55392480  0.08049857     0.06500
C404        C  0.00075933  0.57428845  0.07363458    -0.07300
Co405      Co  0.07022546  0.96890718  0.33050671     0.74200
N406        N  0.08744936  0.52137860  0.04097501    -0.26400
Co407      Co  0.06357945  0.54233423  0.33107032     0.74100
C408        C  0.02559169  0.58699087  0.09231744     0.42200
N409        N  0.47074369  0.51108681  0.04296664     0.00600
N410        N  0.03915070  0.56233899  0.04183522     0.00700
N411        N  0.10587678  0.98378505  0.25701611    -0.47300
H412        H  0.08263075  0.92855409  0.07878410     0.06500
N413        N  0.09017843  0.99344369  0.04041887     0.01000
N414        N  0.03875391  0.56209572  0.28805889     0.00700
C415        C  0.02492412  0.58611397  0.23784818     0.42300
N416        N  0.47336782  0.98312012  0.04260637    -0.25900
C417        C  0.06001618  0.93076149  0.25600264    -0.06800
N418        N  0.01237795  0.92656576  0.07128522    -0.47000
N419        N  0.04812084  0.57797653  0.25820301    -0.47200
C420        C  0.03532382  0.91871182  0.23644568     0.42100
N421        N  0.08994924  0.99341664  0.28689436     0.01000
N422        N  0.47259895  0.98305768  0.28883796    -0.25900
N423        N  0.04957692  0.94510937  0.04083651    -0.26400
N424        N  0.46997233  0.51100882  0.28887834     0.00600
H425        H  0.45554503  0.95001137  0.25086549     0.06500
H426        H  0.47797927  0.57546233  0.24959353     0.06500
N427        N  0.08715819  0.52134338  0.28671526    -0.26500
N428        N  0.01122170  0.55959044  0.04238612    -0.26100
N429        N  0.02133813  0.94267563  0.28720462     0.01000
C430        C  0.11459157  0.00682147  0.09058922     0.42400
C431        C  0.45919695  0.97245692  0.07398997    -0.07300
N432        N  0.01081796  0.55933693  0.28830120    -0.26100
H433        H  0.47862002  0.57608375  0.08192623     0.06500
N434        N  0.10623829  0.98381571  0.06972281    -0.47300
H435        H  0.45749116  0.95022465  0.08170124     0.06500
C436        C  0.44476031  0.49694545  0.23962831     0.42200
C437        C  0.06036990  0.93038409  0.07138935    -0.06800
Co438      Co  0.49678771  0.96229978  0.33162966     0.73800
N439        N  0.45530481  0.52049469  0.07352518    -0.47000
C440        C  0.11403106  0.50675603  0.23605083     0.42500
N441        N  0.01199395  0.92700525  0.25699050    -0.47000
Co442      Co  0.49016475  0.53571398  0.99895075     0.73900
C443        C  0.00016034  0.57373326  0.25729412    -0.07200
C444        C  0.10203248  0.53176768  0.07212810    -0.06900
N445        N  0.04928490  0.94525969  0.28714088    -0.26400
N446        N  0.04867757  0.57850858  0.07140185    -0.47200
H447        H  0.10323150  0.55385176  0.24704319     0.06500
C448        C  0.45746707  0.97228218  0.25853078    -0.07300
Cl449      Cl  0.03017478  0.50232615  0.33136471    -0.50300
C450        C  0.44735654  0.99723485  0.09412331     0.42200
H451        H  0.08226008  0.92897904  0.24809218     0.06400
N452        N  0.45367797  0.52028151  0.25949431    -0.47000
C453        C  0.05230255  0.78327350  0.19690658    -0.28000
C454        C  0.04199770  0.76786689  0.16403340     0.01600
C455        C  0.03150297  0.78272994  0.13078251     0.29700
C456        C  0.03122617  0.81249559  0.13091174    -0.19800
C457        C  0.04109219  0.82800168  0.16403184    -0.29200
C458        C  0.05208213  0.81303895  0.19704444     0.43700
C459        C  0.04093252  0.73635946  0.16557543     0.04900
O460        O  0.51969600  0.76832704  0.09919776    -0.57700
H461        H  0.02239764  0.82341948  0.10539542     0.17900
O462        O  0.06260392  0.82718121  0.22970082    -0.64400
H463        H  0.06052099  0.77213613  0.22265586     0.16300
C464        C  0.05308900  0.71949632  0.13507454     0.28600
C465        C  0.04976712  0.68993792  0.13563312    -0.25300
C466        C  0.03526140  0.67653809  0.16714273    -0.24600
C467        C  0.02415218  0.69338975  0.19862435     0.40000
C468        C  0.02699703  0.72300300  0.19758050    -0.27000
O469        O  0.06848681  0.73168942  0.10475310    -0.58900
H470        H  0.05897115  0.67742443  0.11156520     0.15600
O471        O  0.50991749  0.68129644  0.23011625    -0.60400
H472        H  0.51769612  0.73565222  0.22142889     0.14100
H473        H  0.08283242  0.83094992  0.22317227     0.46000
H474        H  0.08852854  0.73097912  0.11368774     0.41300
H475        H  0.48990159  0.67970554  0.22126891     0.44800
H476        H  0.53273538  0.77151775  0.07625231     0.36300
C477        C  0.24883997  0.48108203  0.13233054    -0.28000
C478        C  0.26400492  0.99321272  0.16416092     0.01600
C479        C  0.24896724  0.00668856  0.19541641     0.29700
C480        C  0.21926679  0.00739142  0.19495059    -0.19800
C481        C  0.20398707  0.99534879  0.16318422    -0.29200
C482        C  0.21907559  0.48225567  0.13147531     0.43700
C483        C  0.29551660  0.99263031  0.16386244     0.04900
O484        O  0.26320697  0.02085115  0.22515555    -0.57700
H485        H  0.20820665  0.01830139  0.21902319     0.17900
O486        O  0.20499398  0.46991561  0.10008094    -0.64400
H487        H  0.26014070  0.47071042  0.10800239     0.16300
C488        C  0.31086887  0.48207688  0.19663834     0.28600
C489        C  0.34056240  0.48347559  0.19673038    -0.25300
C490        C  0.35557869  0.99465621  0.16394364    -0.24600
C491        C  0.34013610  0.00437016  0.13055497     0.40000
C492        C  0.31041891  0.00326716  0.13074757    -0.27000
O493        O  0.29707570  0.47017572  0.22867965    -0.58900
H494        H  0.35186987  0.47540892  0.22240884     0.15600
O495        O  0.35372828  0.01550015  0.09780511    -0.60400
H496        H  0.29892345  0.01137007  0.10524433     0.14100
H497        H  0.20600257  0.48400391  0.07815741     0.46000
H498        H  0.29225008  0.45057470  0.22005566     0.41300
H499        H  0.35625173  0.03597476  0.10402601     0.44800
H500        H  0.25894693  0.01032039  0.25009925     0.36300
C501        C  0.17263594  0.99814868  0.49637138     0.79800
N502        N  0.15809455  0.00048764  0.53150315    -0.78500
C503        C  0.12969412  0.50542501  0.53164239     0.82300
N504        N  0.11566227  0.50808533  0.49660154    -0.78400
C505        C  0.12996335  0.50543287  0.46148102     0.82400
N506        N  0.15833880  0.00034227  0.46135973    -0.80100
C507        C  0.38708798  0.99598071  0.49837374     0.79800
N508        N  0.40240864  0.99661650  0.46383784    -0.78500
C509        C  0.43117448  0.99759437  0.46470750     0.82300
N510        N  0.44489128  0.99780755  0.50021253    -0.78400
C511        C  0.42981524  0.99730511  0.53486293     0.82400
N512        N  0.40098578  0.99620943  0.53395310    -0.80100
C513        C  0.03169642  0.64522366  0.49979888     0.79800
N514        N  0.03052554  0.63095142  0.46435148    -0.78500
C515        C  0.02658673  0.60235401  0.46368398     0.82300
N516        N  0.02413000  0.58787161  0.49847625    -0.78400
C517        C  0.02580724  0.60190608  0.53386844     0.82400
N518        N  0.02962274  0.63046785  0.53450506    -0.80100
C519        C  0.03895920  0.85947661  0.49731098     0.79800
N520        N  0.03768596  0.87424650  0.53229295    -0.78500
C521        C  0.03518678  0.90295981  0.53220055     0.82300
N522        N  0.03429939  0.91715833  0.49708162    -0.78400
C523        C  0.03543979  0.90260012  0.46205507     0.82400
N524        N  0.03777126  0.87384827  0.46216363    -0.80100
C525        C  0.03571561  0.91803220  0.42438888     0.42100
N526        N  0.02165020  0.94247072  0.37467079     0.01000
C527        C  0.10153542  0.53169871  0.58854459    -0.06900
H528        H  0.10378800  0.55392829  0.41383699     0.06500
C529        C  0.00075775  0.57428724  0.40697487    -0.07300
Co530      Co  0.07022736  0.96889964  0.66383775     0.74200
N531        N  0.08744898  0.52138296  0.37431032    -0.26400
Co532      Co  0.06358264  0.54232662  0.66440782     0.74100
C533        C  0.02559025  0.58698895  0.42565853     0.42200
N534        N  0.47074442  0.51108628  0.37630239     0.00600
N535        N  0.03914883  0.56234113  0.37517264     0.00700
N536        N  0.10588049  0.98378160  0.59034857    -0.47300
H537        H  0.08263470  0.92855425  0.41211286     0.06500
N538        N  0.09017926  0.99344815  0.37375242     0.01000
N539        N  0.03875861  0.56208982  0.62139645     0.00700
C540        C  0.02492956  0.58611102  0.57118856     0.42300
N541        N  0.47337003  0.98311972  0.37594088    -0.25900
C542        C  0.06001685  0.93075972  0.58932917    -0.06800
N543        N  0.01238209  0.92656330  0.40461343    -0.47000
N544        N  0.04812609  0.57797272  0.59154316    -0.47200
C545        C  0.03532399  0.91871149  0.56977216     0.42100
N546        N  0.08995220  0.99341103  0.62022755     0.01000
N547        N  0.47260190  0.98305106  0.62217027    -0.25900
N548        N  0.04958012  0.94511140  0.37416796    -0.26400
N549        N  0.46997653  0.51100235  0.62220977     0.00600
H550        H  0.45554631  0.95000456  0.58419970     0.06500
H551        H  0.47798461  0.57545793  0.58292995     0.06500
N552        N  0.08716249  0.52133765  0.62005250    -0.26500
N553        N  0.01121994  0.55959167  0.37572388    -0.26100
N554        N  0.02133963  0.94266971  0.62053653     0.01000
C555        C  0.11459090  0.00682508  0.42392517     0.42400
C556        C  0.45920000  0.97245489  0.40732389    -0.07300
N557        N  0.01082274  0.55933038  0.62163649    -0.26100
H558        H  0.47861884  0.57608088  0.41526821     0.06500
N559        N  0.10623891  0.98381982  0.40305651    -0.47300
H560        H  0.45749524  0.95022230  0.41503383     0.06500
C561        C  0.44476313  0.49693909  0.57296157     0.42200
C562        C  0.06037374  0.93038412  0.40471867    -0.06800
Co563      Co  0.49678952  0.96229319  0.66496218     0.73800
N564        N  0.45530510  0.52049269  0.40686129    -0.47000
C565        C  0.11403662  0.50675385  0.56938748     0.42500
N566        N  0.01199471  0.92700155  0.59032072    -0.47000
Co567      Co  0.49016361  0.53571542  0.33228684     0.73900
C568        C  0.00016563  0.57372834  0.59063095    -0.07200
C569        C  0.10203142  0.53177142  0.40546471    -0.06900
N570        N  0.04928630  0.94525466  0.62047080    -0.26400
N571        N  0.04867586  0.57850901  0.40474085    -0.47200
H572        H  0.10323822  0.55384893  0.58038722     0.06500
C573        C  0.45746935  0.97227545  0.59186400    -0.07300
Cl574      Cl  0.03017757  0.50231899  0.66469808    -0.50300
C575        C  0.44735846  0.99723162  0.42745820     0.42200
H576        H  0.08226047  0.92897872  0.58141647     0.06400
N577        N  0.45368189  0.52027520  0.59282628    -0.47000
C578        C  0.05228460  0.78327188  0.53024419    -0.28000
C579        C  0.04198006  0.76786471  0.49737147     0.01600
C580        C  0.03148308  0.78272677  0.46412121     0.29700
C581        C  0.03120722  0.81249241  0.46424835    -0.19800
C582        C  0.04107510  0.82799908  0.49736664    -0.29200
C583        C  0.05206356  0.81303708  0.53038113     0.43700
C584        C  0.04091835  0.73635747  0.49891327     0.04900
O585        O  0.51967156  0.76832301  0.43254018    -0.57700
H586        H  0.02237854  0.82341594  0.43873183     0.17900
O587        O  0.06258340  0.82717957  0.56303866    -0.64400
H588        H  0.06050339  0.77213508  0.55599376     0.16300
C589        C  0.05307684  0.71949585  0.46841234     0.28600
C590        C  0.04976020  0.68993694  0.46897270    -0.25300
C591        C  0.03525660  0.67653573  0.50048296    -0.24600
C592        C  0.02414399  0.69338616  0.53196327     0.40000
C593        C  0.02698479  0.72299967  0.53091875    -0.27000
O594        O  0.06847057  0.73169114  0.43808851    -0.58900
H595        H  0.05896592  0.67742431  0.44490516     0.15600
O596        O  0.50990824  0.68129109  0.56345337    -0.60400
H597        H  0.51768089  0.73564794  0.55476650     0.14100
H598        H  0.08280448  0.83097497  0.55649511     0.46000
H599        H  0.08851445  0.73097328  0.44701271     0.41300
H600        H  0.48988993  0.67971310  0.55461244     0.44800
H601        H  0.53270779  0.77151414  0.40959138     0.36300
C602        C  0.24884143  0.48107125  0.46567480    -0.28000
C603        C  0.26400690  0.99321912  0.49749170     0.01600
C604        C  0.24897058  0.00671619  0.52873023     0.29700
C605        C  0.21927024  0.00741946  0.52826492    -0.19800
C606        C  0.20398972  0.99535741  0.49651402    -0.29200
C607        C  0.21907711  0.48224613  0.46481848     0.43700
C608        C  0.29551829  0.99263235  0.49719581     0.04900
O609        O  0.26321166  0.02089793  0.55845019    -0.57700
H610        H  0.20821054  0.01834429  0.55232464     0.17900
O611        O  0.20499410  0.46988973  0.43343798    -0.64400
H612        H  0.26014151  0.47068485  0.44135852     0.16300
C613        C  0.31086847  0.48209668  0.52998482     0.28600
C614        C  0.34056215  0.48349149  0.53007633    -0.25300
C615        C  0.35558065  0.99465133  0.49727775    -0.24600
C616        C  0.34013971  0.00434770  0.46387711     0.40000
C617        C  0.31042255  0.00324756  0.46406925    -0.27000
O618        O  0.29707310  0.47021728  0.56204057    -0.58900
H619        H  0.35186774  0.47543806  0.55576466     0.15600
O620        O  0.35373338  0.01545769  0.43111495    -0.60400
H621        H  0.29892869  0.01133662  0.43855586     0.14100
H622        H  0.20600147  0.48396676  0.41150003     0.46000
H623        H  0.29222464  0.45061892  0.55342962     0.41300
H624        H  0.35623815  0.03594016  0.43729934     0.44800
H625        H  0.25895120  0.01038449  0.58340815     0.36300
C626        C  0.17263588  0.99813201  0.82970476     0.79800
N627        N  0.15809476  0.00047234  0.86483685    -0.78500
C628        C  0.12969437  0.50541139  0.86497673     0.82300
N629        N  0.11566219  0.50807096  0.82993630    -0.78400
C630        C  0.12996272  0.50541656  0.79481589     0.82400
N631        N  0.15833810  0.00032517  0.79469373    -0.80100
C632        C  0.38708665  0.99600844  0.83170401     0.79800
N633        N  0.40240600  0.99663427  0.79716672    -0.78500
C634        C  0.43117250  0.99759511  0.79803503     0.82300
N635        N  0.44489044  0.99780343  0.83353941    -0.78400
C636        C  0.42981517  0.99731250  0.86819094     0.82400
N637        N  0.40098517  0.99623225  0.86728274    -0.80100
C638        C  0.03168285  0.64522614  0.83312626     0.79800
N639        N  0.03051562  0.63095354  0.79767859    -0.78500
C640        C  0.02658320  0.60235510  0.79701122     0.82300
N641        N  0.02412933  0.58787245  0.83180346    -0.78400
C642        C  0.02580219  0.60190746  0.86719548     0.82400
N643        N  0.02961118  0.63047003  0.86783229    -0.80100
C644        C  0.03896769  0.85947701  0.83064898     0.79800
N645        N  0.03769188  0.87424632  0.86563130    -0.78500
C646        C  0.03518699  0.90295925  0.86553926     0.82300
N647        N  0.03429711  0.91715781  0.83042024    -0.78400
C648        C  0.03544096  0.90259989  0.79539347     0.82400
N649        N  0.03777769  0.87384864  0.79550197    -0.80100
C650        C  0.03571624  0.91803137  0.75772675     0.42100
N651        N  0.02165134  0.94246464  0.70800348     0.01000
C652        C  0.10153511  0.53169316  0.92187162    -0.06900
H653        H  0.10378719  0.55391511  0.74718001     0.06500
C654        C  0.00075786  0.57428512  0.74030267    -0.07300
Co655      Co  0.07022410  0.96890248  0.99717462     0.74200
N656        N  0.08745037  0.52137270  0.70764697    -0.26400
Co657      Co  0.06358128  0.54232949  0.99773400     0.74100
C658        C  0.02558932  0.58698881  0.75898647     0.42200
N659        N  0.47074591  0.51107990  0.70963212     0.00600
N660        N  0.03915084  0.56233331  0.70850928     0.00700
N661        N  0.10587996  0.98377616  0.92368721    -0.47300
H662        H  0.08263564  0.92854922  0.74544676     0.06500
N663        N  0.09018102  0.99343792  0.70708498     0.01000
N664        N  0.03875665  0.56209064  0.95472165     0.00700
C665        C  0.02492627  0.58611235  0.90451526     0.42300
N666        N  0.47337080  0.98311343  0.70927254    -0.25900
C667        C  0.06001475  0.93075802  0.92267069    -0.06800
N668        N  0.01238279  0.92656123  0.73795013    -0.47000
N669        N  0.04812360  0.57797209  0.92486650    -0.47200
C670        C  0.03532236  0.91871087  0.90311133     0.42100
N671        N  0.08995036  0.99340945  0.95356222     0.01000
N672        N  0.47259928  0.98305626  0.95550196    -0.25900
N673        N  0.04958142  0.94510360  0.70749878    -0.26400
N674        N  0.46997313  0.51100776  0.95554229     0.00600
H675        H  0.45554748  0.95001058  0.91752630     0.06500
H676        H  0.47798111  0.57546449  0.91626391     0.06500
N677        N  0.08716064  0.52133615  0.95338096    -0.26500
N678        N  0.01122182  0.55958511  0.70905707    -0.26100
N679        N  0.02133646  0.94267250  0.95387213     0.01000
C680        C  0.11459076  0.00681096  0.75726061     0.42400
C681        C  0.45919822  0.97244993  0.74065449    -0.07300
N682        N  0.01082048  0.55933388  0.95496566    -0.26100
H683        H  0.47861812  0.57608138  0.74859138     0.06500
N684        N  0.10624012  0.98380728  0.73638795    -0.47300
H685        H  0.45749186  0.95021759  0.74836520     0.06500
C686        C  0.44476359  0.49694544  0.90628929     0.42200
C687        C  0.06037477  0.93037863  0.73805189    -0.06800
Co688      Co  0.49678586  0.96229830  0.99829619     0.73800
N689        N  0.45530460  0.52048763  0.74018783    -0.47000
C690        C  0.11403752  0.50674574  0.90272189     0.42500
N691        N  0.01199231  0.92700381  0.92365622    -0.47000
Co692      Co  0.49016690  0.53570856  0.66561913     0.73900
C693        C  0.00016254  0.57373264  0.92396151    -0.07200
C694        C  0.10203133  0.53175891  0.73880398    -0.06900
N695        N  0.04928333  0.94525541  0.95380946    -0.26400
N696        N  0.04867628  0.57850459  0.73807496    -0.47200
H697        H  0.10323902  0.55384239  0.91370950     0.06500
C698        C  0.45746928  0.97228125  0.92519249    -0.07300
Cl699      Cl  0.03017484  0.50232312  0.99803008    -0.50300
C700        C  0.44735535  0.99722793  0.76078509     0.42200
H701        H  0.08225870  0.92897533  0.91476064     0.06400
N702        N  0.45368009  0.52028106  0.92615722    -0.47000
C703        C  0.05229107  0.78327160  0.86357980    -0.28000
C704        C  0.04197986  0.76786573  0.83071016     0.01600
C705        C  0.03148192  0.78272861  0.79746149     0.29700
C706        C  0.03121031  0.81249405  0.79758762    -0.19800
C707        C  0.04108384  0.82799974  0.83070336    -0.29200
C708        C  0.05207508  0.81303701  0.86371514     0.43700
C709        C  0.04091407  0.73635892  0.83225092     0.04900
O710        O  0.51966798  0.76832629  0.76588046    -0.57700
H711        H  0.02237986  0.82341830  0.77207291     0.17900
O712        O  0.06260243  0.82717926  0.89636798    -0.64400
H713        H  0.06051133  0.77213377  0.88932754     0.16300
C714        C  0.05307268  0.71949744  0.80175023     0.28600
C715        C  0.04975100  0.68993923  0.80230571    -0.25300
C716        C  0.03524261  0.67653823  0.83381168    -0.24600
C717        C  0.02412958  0.69338838  0.86529228     0.40000
C718        C  0.02697517  0.72300165  0.86425215    -0.27000
O719        O  0.06847204  0.73169228  0.77143170    -0.58900
H720        H  0.05895763  0.67742674  0.77823873     0.15600
O721        O  0.50989103  0.68129350  0.89677921    -0.60400
H722        H  0.51767206  0.73565027  0.88809903     0.14100
H723        H  0.08282882  0.83095145  0.88983043     0.46000
H724        H  0.08851326  0.73098222  0.78036883     0.41300
H725        H  0.48987365  0.67971538  0.88793416     0.44800
H726        H  0.53270549  0.77151208  0.74293162     0.36300
C727        C  0.24884668  0.48109742  0.79898369    -0.28000
C728        C  0.26400848  0.99322985  0.83081543     0.01600
C729        C  0.24896838  0.00669682  0.86207544     0.29700
C730        C  0.21926802  0.00739041  0.86161264    -0.19800
C731        C  0.20399054  0.99534550  0.82984579    -0.29200
C732        C  0.21908164  0.48225970  0.79813288     0.43700
C733        C  0.29551948  0.99265407  0.83051932     0.04900
O734        O  0.26320540  0.02085820  0.89181824    -0.57700
H735        H  0.20820594  0.01829443  0.88568877     0.17900
O736        O  0.20500210  0.46991484  0.76674029    -0.64400
H737        H  0.26015016  0.47073169  0.77465309     0.16300
C738        C  0.31087056  0.48208769  0.86328653     0.28600
C739        C  0.34056360  0.48348923  0.86338355    -0.25300
C740        C  0.35558015  0.99468581  0.83060969    -0.24600
C741        C  0.34013901  0.00441861  0.79723097     0.40000
C742        C  0.31042186  0.00331180  0.79741817    -0.27000
O743        O  0.29707632  0.47016935  0.89531418    -0.58900
H744        H  0.35187072  0.47540925  0.88905403     0.15600
O745        O  0.35373307  0.01556993  0.76449715    -0.60400
H746        H  0.29892651  0.01142697  0.77192256     0.14100
H747        H  0.20601281  0.48399924  0.74481206     0.46000
H748        H  0.29225790  0.45057032  0.88667284     0.41300
H749        H  0.35623309  0.03604570  0.77072965     0.44800
H750        H  0.25895457  0.01031795  0.91675681     0.36300
C751        C  0.67263597  0.49807265  0.16303616     0.79800
N752        N  0.65809215  0.50041834  0.19816520    -0.78500
C753        C  0.62969456  0.00538749  0.19830317     0.82300
N754        N  0.61566708  0.00805465  0.16326001    -0.78400
C755        C  0.62996957  0.00539341  0.12814197     0.82400
N756        N  0.65834263  0.50027236  0.12802205    -0.80100
C757        C  0.88708701  0.49592965  0.16503983     0.79800
N758        N  0.90240747  0.49657165  0.13050404    -0.78500
C759        C  0.93117287  0.49756335  0.13137422     0.82300
N760        N  0.94488926  0.49778448  0.16687973    -0.78400
C761        C  0.92981319  0.49727615  0.20153006     0.82400
N762        N  0.90098427  0.49616610  0.20061954    -0.80100
C763        C  0.53171466  0.14522731  0.16645296     0.79800
N764        N  0.53054967  0.13095350  0.13100639    -0.78500
C765        C  0.52662091  0.10235476  0.13034049     0.82300
N766        N  0.52416638  0.08787279  0.16513338    -0.78400
C767        C  0.52583617  0.10190908  0.20052489     0.82400
N768        N  0.52964235  0.13047215  0.20115998    -0.80100
C769        C  0.53892860  0.35948135  0.16397436     0.79800
N770        N  0.53764947  0.37424857  0.19895838    -0.78500
C771        C  0.53513303  0.40296063  0.19886963     0.82300
N772        N  0.53423644  0.41716056  0.16375228    -0.78400
C773        C  0.53538438  0.40260483  0.12872413     0.82400
N774        N  0.53773320  0.37385462  0.12882927    -0.80100
C775        C  0.53566583  0.41803883  0.09106022     0.42100
N776        N  0.52161464  0.44247910  0.04133662     0.01000
C777        C  0.60154255  0.03167627  0.25519968    -0.06900
H778        H  0.60381436  0.05389830  0.08049468     0.06500
C779        C  0.50078639  0.07429750  0.07363052    -0.07300
Co780      Co  0.57020835  0.46888580  0.33050082     0.74200
N781        N  0.58746057  0.02135821  0.04097189    -0.26400
Co782      Co  0.56359691  0.04232187  0.33106748     0.74100
C783        C  0.52562279  0.08698921  0.09231586     0.42200
N784        N  0.97073676  0.01104950  0.04297076     0.00600
N785        N  0.53917451  0.06233418  0.04183333     0.00700
N786        N  0.60586682  0.48374250  0.25700772    -0.47300
H787        H  0.58259145  0.42852641  0.07877696     0.06500
N788        N  0.59017715  0.49341050  0.04041219     0.01000
N789        N  0.53877772  0.06209186  0.28805596     0.00700
C790        C  0.52495520  0.08611550  0.23784645     0.42300
N791        N  0.97337244  0.48309970  0.04260708    -0.25900
C792        C  0.55997582  0.43074542  0.25599985    -0.06800
N793        N  0.51233687  0.42658230  0.07128474    -0.47000
N794        N  0.54814972  0.07796901  0.25819918    -0.47200
C795        C  0.53527640  0.41871149  0.23644212     0.42100
N796        N  0.58994572  0.49338336  0.28688694     0.01000
N797        N  0.97260381  0.48303742  0.28883939    -0.25900
N798        N  0.54954636  0.44510104  0.04083131    -0.26400
N799        N  0.96996554  0.01097217  0.28888281     0.00600
H800        H  0.95556229  0.44998520  0.25086607     0.06500
H801        H  0.97793562  0.07543053  0.24959650     0.06500
N802        N  0.58716803  0.02132285  0.28671144    -0.26500
N803        N  0.51124442  0.05959616  0.04238273    -0.26100
N804        N  0.52130467  0.44268334  0.28720081     0.01000
C805        C  0.61460063  0.50677439  0.09058015     0.42400
C806        C  0.95920555  0.47243121  0.07399049    -0.07300
N807        N  0.51084072  0.05934338  0.28829956    -0.26100
H808        H  0.97857584  0.07605170  0.08193599     0.06500
N809        N  0.60623252  0.48377335  0.06971517    -0.47300
H810        H  0.95750752  0.45019825  0.08170120     0.06500
C811        C  0.94476172  0.99689461  0.23963218     0.42200
C812        C  0.56033145  0.43036985  0.07138374    -0.06800
Co813      Co  0.99679930  0.46228731  0.33163064     0.73800
N814        N  0.95529257  0.02044817  0.07352943    -0.47000
C815        C  0.61403461  0.00672536  0.23604577     0.42500
N816        N  0.51195115  0.42701924  0.25698597    -0.47000
Co817      Co  0.99014312  0.03568881  0.99895605     0.73900
C818        C  0.50018751  0.07374415  0.25729384    -0.07200
C819        C  0.60204870  0.03174187  0.07212406    -0.06900
N820        N  0.54925302  0.44525043  0.28713722    -0.26400
N821        N  0.54870652  0.07849896  0.07140185    -0.47200
H822        H  0.60325231  0.05382513  0.24703800     0.06500
C823        C  0.95747617  0.47225665  0.25853178    -0.07300
Cl824      Cl  0.53017772  0.00232618  0.33136252    -0.50300
C825        C  0.94735734  0.49720483  0.09412501     0.42200
H826        H  0.58221870  0.42894963  0.24808961     0.06400
N827        N  0.95366526  0.02023560  0.25949947    -0.47000
C828        C  0.55228084  0.28327904  0.19689697    -0.28000
C829        C  0.54198165  0.26787044  0.16402205     0.01600
C830        C  0.53148462  0.28273140  0.13077071     0.29700
C831        C  0.53119931  0.31249693  0.13090184    -0.19800
C832        C  0.54105899  0.32800473  0.16402417    -0.29200
C833        C  0.55205169  0.31304427  0.19703684     0.43700
C834        C  0.54092365  0.23636286  0.16556401     0.04900
O835        O  0.01967488  0.26832810  0.09921075    -0.57700
H836        H  0.52236898  0.32341912  0.10538531     0.17900
O837        O  0.56256734  0.32718846  0.22969554    -0.64400
H838        H  0.56050113  0.27214333  0.22264650     0.16300
C839        C  0.55308312  0.21950224  0.13506275     0.28600
C840        C  0.54976893  0.18994310  0.13562303    -0.25300
C841        C  0.53526867  0.17654024  0.16713502    -0.24600
C842        C  0.52415620  0.19338963  0.19861663     0.40000
C843        C  0.52699283  0.22300351  0.19757077    -0.27000
O844        O  0.56847701  0.23169848  0.10473989    -0.58900
H845        H  0.55897533  0.17743147  0.11155499     0.15600
O846        O  0.00987499  0.18129832  0.23011906    -0.60400
H847        H  0.01766728  0.23565266  0.22143491     0.14100
H848        H  0.58279354  0.33096862  0.22316627     0.46000
H849        H  0.58851977  0.23098887  0.11367027     0.41300
H850        H  0.98986036  0.17970889  0.22126559     0.44800
H851        H  0.03271502  0.27151230  0.07626435     0.36300
C852        C  0.74883840  0.98099636  0.13233652    -0.28000
C853        C  0.76400703  0.49311995  0.16416649     0.01600
C854        C  0.74897041  0.50659476  0.19542404     0.29700
C855        C  0.71927017  0.50730372  0.19495555    -0.19800
C856        C  0.70398932  0.49526881  0.16318448    -0.29200
C857        C  0.71907429  0.98217989  0.13147924     0.43700
C858        C  0.79551901  0.49253962  0.16386424     0.04900
O859        O  0.76321120  0.52075274  0.22516649    -0.57700
H860        H  0.70821138  0.51821381  0.21902925     0.17900
O861        O  0.70498970  0.96984601  0.10008279    -0.64400
H862        H  0.76013651  0.97062267  0.10800775     0.16300
C863        C  0.81087315  0.98198974  0.19664359     0.28600
C864        C  0.84056654  0.98339398  0.19673511    -0.25300
C865        C  0.85558064  0.49458438  0.16394335    -0.24600
C866        C  0.84013451  0.50428814  0.13055206     0.40000
C867        C  0.81041776  0.50317632  0.13074609    -0.27000
O868        O  0.79708240  0.97008989  0.22868787    -0.58900
H869        H  0.85187557  0.97533336  0.22241597     0.15600
O870        O  0.85372255  0.51541750  0.09779840    -0.60400
H871        H  0.79891967  0.51127370  0.10524172     0.14100
H872        H  0.70600449  0.98393464  0.07816021     0.46000
H873        H  0.79226383  0.95048573  0.22007034     0.41300
H874        H  0.85623159  0.53589564  0.10400781     0.44800
H875        H  0.75894736  0.51022150  0.25010849     0.36300
C876        C  0.67263891  0.49807808  0.49636747     0.79800
N877        N  0.65809655  0.50042213  0.53149777    -0.78500
C878        C  0.62969868  0.00538859  0.53163867     0.82300
N879        N  0.61566961  0.00805564  0.49659658    -0.78400
C880        C  0.62997083  0.00539628  0.46147703     0.82400
N881        N  0.65834423  0.50027704  0.46135429    -0.80100
C882        C  0.88708933  0.49592329  0.49837465     0.79800
N883        N  0.90240991  0.49656588  0.46383911    -0.78500
C884        C  0.93117515  0.49755807  0.46470911     0.82300
N885        N  0.94489171  0.49777864  0.50021420    -0.78400
C886        C  0.92981574  0.49726935  0.53486436     0.82400
N887        N  0.90098681  0.49615940  0.53395423    -0.80100
C888        C  0.53171324  0.14522484  0.49979380     0.79800
N889        N  0.53054699  0.13095116  0.46434740    -0.78500
C890        C  0.52662056  0.10235223  0.46368175     0.82300
N891        N  0.52416991  0.08786987  0.49847469    -0.78400
C892        C  0.52584141  0.10190613  0.53386597     0.82400
N893        N  0.52964475  0.13046955  0.53450105    -0.80100
C894        C  0.53891706  0.35947879  0.49730522     0.79800
N895        N  0.53763997  0.37424743  0.53228786    -0.78500
C896        C  0.53513278  0.40295999  0.53219697     0.82300
N897        N  0.53424293  0.41715925  0.49707881    -0.78400
C898        C  0.53538822  0.40260215  0.46205165     0.82400
N899        N  0.53772773  0.37385108  0.46215876    -0.80100
C900        C  0.53567050  0.41803517  0.42438686     0.42100
N901        N  0.52161805  0.44247979  0.37466798     0.01000
C902        C  0.60154825  0.03167301  0.58854028    -0.06900
H903        H  0.60381227  0.05390182  0.41383313     0.06500
C904        C  0.50078506  0.07429628  0.40697085    -0.07300
Co905      Co  0.57021060  0.46887813  0.66383192     0.74200
N906        N  0.58746031  0.02136253  0.37430727    -0.26400
Co907      Co  0.56359983  0.04231433  0.66440528     0.74100
C908        C  0.52562163  0.08698711  0.42565714     0.42200
N909        N  0.97073757  0.01104907  0.37630634     0.00600
N910        N  0.53917289  0.06233630  0.37517077     0.00700
N911        N  0.60587071  0.48373878  0.59034007    -0.47300
H912        H  0.58259566  0.42852664  0.41210540     0.06500
N913        N  0.59017793  0.49341501  0.37374548     0.01000
N914        N  0.53878220  0.06208607  0.62139381     0.00700
C915        C  0.52496054  0.08611266  0.57118707     0.42300
N916        N  0.97337461  0.48309918  0.37594190    -0.25900
C917        C  0.55997701  0.43074348  0.58932651    -0.06800
N918        N  0.51234123  0.42657980  0.40461319    -0.47000
N919        N  0.54815484  0.07796530  0.59153966    -0.47200
C920        C  0.53527713  0.41871103  0.56976862     0.42100
N921        N  0.58994899  0.49337755  0.62022010     0.01000
N922        N  0.97260706  0.48303072  0.62217165    -0.25900
N923        N  0.54954963  0.44510309  0.37416271    -0.26400
N924        N  0.96996949  0.01096588  0.62221427     0.00600
H925        H  0.95556375  0.44997833  0.58420028     0.06500
H926        H  0.97794089  0.07542636  0.58293297     0.06500
N927        N  0.58717210  0.02131727  0.62004897    -0.26500
N928        N  0.51124290  0.05959744  0.37572046    -0.26100
N929        N  0.52130661  0.44267728  0.62053264     0.01000
C930        C  0.61460008  0.50677794  0.42391570     0.42400
C931        C  0.95920864  0.47242911  0.40732483    -0.07300
N932        N  0.51084529  0.05933692  0.62163501    -0.26100
H933        H  0.97857482  0.07604882  0.41527799     0.06500
N934        N  0.60623317  0.48377745  0.40304847    -0.47300
H935        H  0.95751169  0.45019586  0.41503435     0.06500
C936        C  0.94476440  0.99688838  0.57296537     0.42200
C937        C  0.56033551  0.43036993  0.40471293    -0.06800
Co938      Co  0.99680145  0.46228064  0.66496313     0.73800
N939        N  0.95529298  0.02044623  0.40686544    -0.47000
C940        C  0.61404013  0.00672349  0.56938283     0.42500
N941        N  0.51195241  0.42701544  0.59031607    -0.47000
Co942      Co  0.99014215  0.03569038  0.33229206     0.73900
C943        C  0.50019266  0.07373933  0.59063078    -0.07200
C944        C  0.60204766  0.03174563  0.40546079    -0.06900
N945        N  0.54925486  0.44524522  0.62046721    -0.26400
N946        N  0.54870507  0.07849923  0.40474101    -0.47200
H947        H  0.60325891  0.05382257  0.58038260     0.06500
C948        C  0.95747867  0.47224986  0.59186501    -0.07300
Cl949      Cl  0.53018022  0.00231911  0.66469600    -0.50300
C950        C  0.94735922  0.49720157  0.42746016     0.42200
H951        H  0.58221963  0.42894912  0.58141414     0.06400
N952        N  0.95366908  0.02022945  0.59283131    -0.47000
C953        C  0.55226172  0.28327720  0.53023450    -0.28000
C954        C  0.54196275  0.26786826  0.49735992     0.01600
C955        C  0.53146389  0.28272841  0.46410912     0.29700
C956        C  0.53117990  0.31249391  0.46423829    -0.19800
C957        C  0.54104157  0.32800208  0.49735891    -0.29200
C958        C  0.55203249  0.31304216  0.53037346     0.43700
C959        C  0.54090799  0.23636090  0.49890146     0.04900
O960        O  0.01964995  0.26832450  0.43255233    -0.57700
H961        H  0.52234971  0.32341591  0.43872150     0.17900
O962        O  0.56254655  0.32718639  0.56303325    -0.64400
H963        H  0.56048216  0.27214190  0.55598432     0.16300
C964        C  0.55306958  0.21950185  0.46840022     0.28600
C965        C  0.54976084  0.18994220  0.46896239    -0.25300
C966        C  0.53526279  0.17653791  0.50047505    -0.24600
C967        C  0.52414660  0.19338603  0.53195514     0.40000
C968        C  0.52697901  0.22300019  0.53090853    -0.27000
O969        O  0.56845939  0.23170028  0.43807499    -0.58900
H970        H  0.55896911  0.17743144  0.44489483     0.15600
O971        O  0.00986423  0.18129302  0.56345572    -0.60400
H972        H  0.01765044  0.23564846  0.55477207     0.14100
H973        H  0.58276554  0.33099239  0.55648920     0.46000
H974        H  0.58850415  0.23098398  0.44699550     0.41300
H975        H  0.98984730  0.17971589  0.55460819     0.44800
H976        H  0.03268703  0.27150939  0.40960276     0.36300
C977        C  0.74883956  0.98098442  0.46568186    -0.28000
C978        C  0.76400904  0.49312669  0.49749740     0.01600
C979        C  0.74897361  0.50662222  0.52873826     0.29700
C980        C  0.71927348  0.50733141  0.52827009    -0.19800
C981        C  0.70399201  0.49527738  0.49651408    -0.29200
C982        C  0.71907550  0.98216936  0.46482363     0.43700
C983        C  0.79552072  0.49254216  0.49719790     0.04900
O984        O  0.76321556  0.52079902  0.55846204    -0.57700
H985        H  0.70821501  0.51825600  0.55233113     0.17900
O986        O  0.70498926  0.96981791  0.43344221    -0.64400
H987        H  0.76013686  0.97059482  0.44136574     0.16300
C988        C  0.81087264  0.98201046  0.52999058     0.28600
C989        C  0.84056619  0.98341076  0.53008145    -0.25300
C990        C  0.85558259  0.49457996  0.49727783    -0.24600
C991        C  0.84013815  0.50426644  0.46387473     0.40000
C992        C  0.81042144  0.50315750  0.46406827    -0.27000
O993        O  0.79707966  0.97013355  0.56205013    -0.58900
H994        H  0.85187328  0.97536424  0.55577277     0.15600
O995        O  0.85372772  0.51537605  0.43110899    -0.60400
H996        H  0.79892497  0.51124125  0.43855386     0.14100
H997        H  0.70600280  0.98389435  0.41150406     0.46000
H998        H  0.79223801  0.95053181  0.55344691     0.41300
H999        H  0.85621732  0.53586213  0.43728169     0.44800
H1000       H  0.75895101  0.51028490  0.58341818     0.36300
C1001       C  0.67263884  0.49806170  0.82970114     0.79800
N1002       N  0.65809676  0.50040712  0.86483179    -0.78500
C1003       C  0.62969897  0.00537476  0.86497282     0.82300
N1004       N  0.61566958  0.00804111  0.82993117    -0.78400
C1005       C  0.62997023  0.00537968  0.79481174     0.82400
N1006       N  0.65834349  0.50026021  0.79468860    -0.80100
C1007       C  0.88708805  0.49595118  0.83170434     0.79800
N1008       N  0.90240740  0.49658366  0.79716747    -0.78500
C1009       C  0.93117331  0.49755876  0.79803627     0.82300
N1010       N  0.94489094  0.49777462  0.83354076    -0.78400
C1011       C  0.92981567  0.49727707  0.86819199     0.82400
N1012       N  0.90098618  0.49618255  0.86728335    -0.80100
C1013       C  0.53169983  0.14522731  0.83312167     0.79800
N1014       N  0.53053704  0.13095353  0.79767479    -0.78500
C1015       C  0.52661657  0.10235362  0.79700892     0.82300
N1016       N  0.52416859  0.08787082  0.83180164    -0.78400
C1017       C  0.52583590  0.10190737  0.86719292     0.82400
N1018       N  0.52963315  0.13047152  0.86782856    -0.80100
C1019       C  0.53892545  0.35947909  0.83064353     0.79800
N1020       N  0.53764555  0.37424728  0.86562639    -0.78500
C1021       C  0.53513261  0.40295945  0.86553565     0.82300
N1022       N  0.53424043  0.41715862  0.83041728    -0.78400
C1023       C  0.53538942  0.40260170  0.79539000     0.82400
N1024       N  0.53773424  0.37385122  0.79549728    -0.80100
C1025       C  0.53567132  0.41803401  0.75772457     0.42100
N1026       N  0.52161951  0.44247349  0.70800054     0.01000
C1027       C  0.60154800  0.03166739  0.92186700    -0.06900
H1028       H  0.60381145  0.05388851  0.74717631     0.06500
C1029       C  0.50078478  0.07429450  0.74029851    -0.07300
Co1030     Co  0.57020708  0.46888105  0.99716888     0.74200
N1031       N  0.58746142  0.02135223  0.70764415    -0.26400
Co1032     Co  0.56359852  0.04231717  0.99773117     0.74100
C1033       C  0.52562027  0.08698745  0.75898488     0.42200
N1034       N  0.97073878  0.01104294  0.70963623     0.00600
N1035       N  0.53917457  0.06232856  0.70850764     0.00700
N1036       N  0.60587006  0.48373346  0.92367892    -0.47300
H1037       H  0.58259681  0.42852140  0.74543948     0.06500
N1038       N  0.59017996  0.49340474  0.70707807     0.01000
N1039       N  0.53878015  0.06208670  0.95471874     0.00700
C1040       C  0.52495695  0.08611359  0.90451343     0.42300
N1041       N  0.97337571  0.48309280  0.70927346    -0.25900
C1042       C  0.55997456  0.43074187  0.92266798    -0.06800
N1043       N  0.51234219  0.42657743  0.73794962    -0.47000
N1044       N  0.54815213  0.07796447  0.92486264    -0.47200
C1045       C  0.53527513  0.41871058  0.90310769     0.42100
N1046       N  0.58994703  0.49337607  0.95355499     0.01000
N1047       N  0.97260430  0.48303625  0.95550312    -0.25900
N1048       N  0.54955125  0.44509513  0.70749357    -0.26400
N1049       N  0.96996618  0.01097087  0.95554694     0.00600
H1050       H  0.95556476  0.44998471  0.91752662     0.06500
H1051       H  0.97793708  0.07543240  0.91626692     0.06500
N1052       N  0.58717029  0.02131575  0.95337712    -0.26500
N1053       N  0.51124444  0.05959100  0.70905376    -0.26100
N1054       N  0.52130315  0.44268029  0.95386816     0.01000
C1055       C  0.61459990  0.50676394  0.75725141     0.42400
C1056       C  0.95920711  0.47242406  0.74065524    -0.07300
N1057       N  0.51084296  0.05934013  0.95496404    -0.26100
H1058       H  0.97857373  0.07604982  0.74860082     0.06500
N1059       N  0.60623451  0.48376496  0.73638016    -0.47300
H1060       H  0.95750852  0.45019104  0.74836548     0.06500
C1061       C  0.94476495  0.99689426  0.90629331     0.42200
C1062       C  0.56033678  0.43036422  0.73804620    -0.06800
Co1063     Co  0.99679753  0.46228596  0.99829694     0.73800
N1064       N  0.95529225  0.02044144  0.74019220    -0.47000
C1065       C  0.61404110  0.00671527  0.90271703     0.42500
N1066       N  0.51194968  0.42701792  0.92365149    -0.47000
Co1067     Co  0.99014520  0.03568373  0.66562444     0.73900
C1068       C  0.50018937  0.07374319  0.92396116    -0.07200
C1069       C  0.60204746  0.03173298  0.73880020    -0.06900
N1070       N  0.54925160  0.44524611  0.95380582    -0.26400
N1071       N  0.54870511  0.07849508  0.73807518    -0.47200
H1072       H  0.60325977  0.05381595  0.91370452     0.06500
C1073       C  0.95747847  0.47225602  0.92519324    -0.07300
Cl1074     Cl  0.53017764  0.00232311  0.99802796    -0.50300
C1075       C  0.94735631  0.49719778  0.76078678     0.42200
H1076       H  0.58221751  0.42894574  0.91475828     0.06400
N1077       N  0.95366731  0.02023485  0.92616244    -0.47000
C1078       C  0.55226862  0.28327709  0.86357127    -0.28000
C1079       C  0.54196339  0.26786918  0.83069973     0.01600
C1080       C  0.53146357  0.28272991  0.79745029     0.29700
C1081       C  0.53118351  0.31249522  0.79757817    -0.19800
C1082       C  0.54105045  0.32800265  0.83069624    -0.29200
C1083       C  0.55204406  0.31304226  0.86370839     0.43700
C1084       C  0.54090481  0.23636224  0.83224046     0.04900
O1085       O  0.01964763  0.26832715  0.76589359    -0.57700
H1086       H  0.52235158  0.32341773  0.77206300     0.17900
O1087       O  0.56256516  0.32718650  0.89636359    -0.64400
H1088       H  0.56049046  0.27214097  0.88931947     0.16300
C1089       C  0.55306656  0.21950333  0.80173947     0.28600
C1090       C  0.54975253  0.18994439  0.80229654    -0.25300
C1091       C  0.53524945  0.17654035  0.83380469    -0.24600
C1092       C  0.52413305  0.19338815  0.86528527     0.40000
C1093       C  0.52697046  0.22300206  0.86424324    -0.27000
O1094       O  0.56846222  0.23170128  0.77141974    -0.58900
H1095       H  0.55896165  0.17743380  0.77822947     0.15600
O1096       O  0.00984796  0.18129537  0.89678269    -0.60400
H1097       H  0.01764289  0.23565071  0.88810591     0.14100
H1098       H  0.58278916  0.33097052  0.88982522     0.46000
H1099       H  0.58850422  0.23099345  0.78035397     0.41300
H1100       H  0.98983181  0.17971923  0.88793170     0.44800
H1101       H  0.03268605  0.27150653  0.74294404     0.36300
C1102       C  0.74884505  0.98101131  0.79899015    -0.28000
C1103       C  0.76401064  0.49313729  0.83082072     0.01600
C1104       C  0.74897163  0.50660310  0.86208293     0.29700
C1105       C  0.71927146  0.50730275  0.86161755    -0.19800
C1106       C  0.70399282  0.49526558  0.82984603    -0.29200
C1107       C  0.71908028  0.98218365  0.79813716     0.43700
C1108       C  0.79552194  0.49256365  0.83052074     0.04900
O1109       O  0.76320973  0.52075977  0.89182911    -0.57700
H1110       H  0.70821075  0.51820683  0.88569484     0.17900
O1111       O  0.70499777  0.96984511  0.76674237    -0.64400
H1112       H  0.76014591  0.97064338  0.77465901     0.16300
C1113       C  0.81087478  0.98200014  0.86329227     0.28600
C1114       C  0.84056769  0.98340713  0.86338864    -0.25300
C1115       C  0.85558214  0.49461448  0.83060907    -0.24600
C1116       C  0.84013744  0.50433702  0.79722769     0.40000
C1117       C  0.81042072  0.50322133  0.79741633    -0.27000
O1118       O  0.79708297  0.97008330  0.89532302    -0.58900
H1119       H  0.85187639  0.97533319  0.88906152     0.15600
O1120       O  0.85372735  0.51548768  0.76449003    -0.60400
H1121       H  0.79892272  0.51133096  0.77191960     0.14100
H1122       H  0.70601470  0.98392995  0.74481519     0.46000
H1123       H  0.79227114  0.95048122  0.88668813     0.41300
H1124       H  0.85621312  0.53596692  0.77071106     0.44800
H1125       H  0.75895511  0.51021897  0.91676594     0.36300
C1126       C  0.67263575  0.99807930  0.16303763     0.79800
N1127       N  0.65809211  0.00042580  0.19816675    -0.78500
C1128       C  0.62969429  0.50537803  0.19830145     0.82300
N1129       N  0.61566669  0.50804426  0.16325828    -0.78400
C1130       C  0.62996942  0.50538396  0.12814034     0.82400
N1131       N  0.65834243  0.00027972  0.12802359    -0.80100
C1132       C  0.88708733  0.99592158  0.16504097     0.79800
N1133       N  0.90240791  0.99656231  0.13050521    -0.78500
C1134       C  0.93117342  0.99755133  0.13137542     0.82300
N1135       N  0.94488980  0.99777143  0.16688094    -0.78400
C1136       C  0.92981367  0.99726462  0.20153128     0.82400
N1137       N  0.90098461  0.99615729  0.20062075    -0.80100
C1138       C  0.53172851  0.64522814  0.16645165     0.79800
N1139       N  0.53056265  0.63095474  0.13100483    -0.78500
C1140       C  0.52663237  0.60235622  0.13033848     0.82300
N1141       N  0.52417702  0.58787409  0.16513110    -0.78400
C1142       C  0.52584754  0.60190998  0.20052280     0.82400
N1143       N  0.52965530  0.63047281  0.20115839    -0.80100
C1144       C  0.53894335  0.85948147  0.16397533     0.79800
N1145       N  0.53766336  0.87424835  0.19895958    -0.78500
C1146       C  0.53514521  0.90296026  0.19887119     0.82300
N1147       N  0.53424760  0.91716037  0.16375405    -0.78400
C1148       C  0.53539631  0.90260492  0.12872573     0.82400
N1149       N  0.53774686  0.87385488  0.12883048    -0.80100
C1150       C  0.53567596  0.91803903  0.09106200     0.42100
N1151       N  0.52162186  0.94247723  0.04133811     0.01000
C1152       C  0.60154570  0.53166923  0.25519838    -0.06900
H1153       H  0.60382030  0.55389104  0.08049201     0.06500
C1154       C  0.50079470  0.57430235  0.07362840    -0.07300
Co1155     Co  0.57021254  0.96888955  0.33050256     0.74200
N1156       N  0.58746257  0.52135251  0.04097005    -0.26400
Co1157     Co  0.56360132  0.54231895  0.33106558     0.74100
C1158       C  0.52563258  0.58699113  0.09231367     0.42200
N1159       N  0.97073771  0.51105752  0.04296961     0.00600
N1160       N  0.53918145  0.56233415  0.04183159     0.00700
N1161       N  0.60586965  0.98375012  0.25700999    -0.47300
H1162       H  0.58260032  0.92853221  0.07877884     0.06500
N1163       N  0.59017853  0.99341654  0.04041360     0.01000
N1164       N  0.53878448  0.56209161  0.28805401     0.00700
C1165       C  0.52496482  0.58611632  0.23784409     0.42300
N1166       N  0.97337489  0.98309201  0.04260838    -0.25900
C1167       C  0.55998468  0.93074780  0.25600168    -0.06800
N1168       N  0.51234598  0.92657943  0.07128629    -0.47000
N1169       N  0.54815839  0.57796736  0.25819694    -0.47200
C1170       C  0.53528674  0.91871087  0.23644388     0.42100
N1171       N  0.58994727  0.99338929  0.28688891     0.01000
N1172       N  0.97260663  0.98303004  0.28884014    -0.25900
N1173       N  0.54955326  0.94510256  0.04083288    -0.26400
N1174       N  0.96996615  0.51097986  0.28888164     0.00600
H1175       H  0.95556886  0.94997604  0.25086642     0.06500
H1176       H  0.97794336  0.57543665  0.24959462     0.06500
N1177       N  0.58716989  0.52131724  0.28670983    -0.26500
N1178       N  0.51125104  0.55959953  0.04238091    -0.26100
N1179       N  0.52131202  0.94268144  0.28720214     0.01000
C1180       C  0.61460050  0.00678282  0.09058183     0.42400
C1181       C  0.95920934  0.97242190  0.07399196    -0.07300
N1182       N  0.51084717  0.55934639  0.28829767    -0.26100
H1183       H  0.97858407  0.57605918  0.08193380     0.06500
N1184       N  0.60623518  0.98378105  0.06971625    -0.47300
H1185       H  0.95751402  0.95018878  0.08170283     0.06500
C1186       C  0.94476116  0.49690499  0.23963084     0.42200
C1187       C  0.56034011  0.93037290  0.07138552    -0.06800
Co1188     Co  0.99680442  0.96228258  0.33163172     0.73800
N1189       N  0.95529482  0.52045799  0.07352853    -0.47000
C1190       C  0.61403453  0.50671700  0.23604399     0.42500
N1191       N  0.51196045  0.92701609  0.25698738    -0.47000
Co1192     Co  0.99014677  0.53569447  0.99895454     0.73900
C1193       C  0.50019565  0.57374817  0.25729174    -0.07200
C1194       C  0.60205199  0.53173473  0.07212185    -0.06900
N1195       N  0.54926007  0.94525173  0.28713883    -0.26400
N1196       N  0.54871536  0.57849789  0.07139999    -0.47200
H1197       H  0.60325813  0.55381797  0.24703708     0.06500
C1198       C  0.95748017  0.97224768  0.25853238    -0.07300
Cl1199     Cl  0.53017751  0.50232711  0.33136098    -0.50300
C1200       C  0.94735790  0.99719417  0.09412614     0.42200
H1201       H  0.58222781  0.92895450  0.24809172     0.06400
N1202       N  0.95366738  0.52024509  0.25949776    -0.47000
C1203       C  0.55229754  0.78327941  0.19689704    -0.28000
C1204       C  0.54199870  0.76787080  0.16402189     0.01600
C1205       C  0.53150187  0.78273173  0.13077039     0.29700
C1206       C  0.53121604  0.81249721  0.13090183    -0.19800
C1207       C  0.54107504  0.82800500  0.16402456    -0.29200
C1208       C  0.55206797  0.81304462  0.19703711     0.43700
C1209       C  0.54094049  0.73636327  0.16556394     0.04900
O1210       O  0.01969092  0.76832759  0.09921242    -0.57700
H1211       H  0.52238569  0.82341935  0.10538527     0.17900
O1212       O  0.56258338  0.82718888  0.22969592    -0.64400
H1213       H  0.56051778  0.77214373  0.22264663     0.16300
C1214       C  0.55309925  0.71950251  0.13506227     0.28600
C1215       C  0.54978420  0.68994348  0.13562223    -0.25300
C1216       C  0.53528387  0.67654087  0.16713434    -0.24600
C1217       C  0.52417243  0.69339033  0.19861659     0.40000
C1218       C  0.52700984  0.72300411  0.19757099    -0.27000
O1219       O  0.56849322  0.73169847  0.10473928    -0.58900
H1220       H  0.55898991  0.67743175  0.11155377     0.15600
O1221       O  0.00989169  0.68129869  0.23012124    -0.60400
H1222       H  0.01768495  0.73565295  0.22143772     0.14100
H1223       H  0.58280960  0.83096911  0.22316687     0.46000
H1224       H  0.58853577  0.73099036  0.11367078     0.41300
H1225       H  0.98987568  0.67971522  0.22127192     0.44800
H1226       H  0.03273084  0.77151208  0.07626589     0.36300
C1227       C  0.74883961  0.48099508  0.13233479    -0.28000
C1228       C  0.76400673  0.99312158  0.16416716     0.01600
C1229       C  0.74897097  0.00659837  0.19542387     0.29700
C1230       C  0.71927072  0.00730891  0.19495571    -0.19800
C1231       C  0.70398900  0.99527364  0.16318577    -0.29200
C1232       C  0.71907550  0.48217706  0.13147717     0.43700
C1233       C  0.79551877  0.99253901  0.16386506     0.04900
O1234       O  0.76321269  0.02075661  0.22516519    -0.57700
H1235       H  0.70821266  0.01822048  0.21902873     0.17900
O1236       O  0.70499183  0.46984377  0.10007944    -0.64400
H1237       H  0.76013845  0.47062300  0.10800531     0.16300
C1238       C  0.81087428  0.48199017  0.19664183     0.28600
C1239       C  0.84056754  0.48339675  0.19673324    -0.25300
C1240       C  0.85558073  0.99457898  0.16394438    -0.24600
C1241       C  0.84013542  0.00428249  0.13055210     0.40000
C1242       C  0.81041852  0.00317311  0.13074609    -0.27000
O1243       O  0.79708456  0.47008805  0.22868531    -0.58900
H1244       H  0.85187734  0.47533597  0.22241334     0.15600
O1245       O  0.85372440  0.01540907  0.09779732    -0.60400
H1246       H  0.79892116  0.01127023  0.10524091     0.14100
H1247       H  0.70600565  0.48393359  0.07815831     0.46000
H1248       H  0.79226565  0.45048449  0.22006537     0.41300
H1249       H  0.85623831  0.03588661  0.10400674     0.44800
H1250       H  0.75894798  0.01022680  0.25010812     0.36300
C1251       C  0.67263876  0.99808456  0.49636935     0.79800
N1252       N  0.65809661  0.00042959  0.53149973    -0.78500
C1253       C  0.62969827  0.50537893  0.53163656     0.82300
N1254       N  0.61566906  0.50804500  0.49659447    -0.78400
C1255       C  0.62997055  0.50538676  0.46147503     0.82400
N1256       N  0.65834413  0.00028426  0.46135621    -0.80100
C1257       C  0.88708961  0.99591597  0.49837538     0.79800
N1258       N  0.90241034  0.99655716  0.46383987    -0.78500
C1259       C  0.93117570  0.99754644  0.46470995     0.82300
N1260       N  0.94489222  0.99776592  0.50021508    -0.78400
C1261       C  0.92981617  0.99725833  0.53486523     0.82400
N1262       N  0.90098710  0.99615130  0.53395502    -0.80100
C1263       C  0.53172748  0.64522572  0.49979247     0.79800
N1264       N  0.53056027  0.63095251  0.46434574    -0.78500
C1265       C  0.52663206  0.60235382  0.46367954     0.82300
N1266       N  0.52418042  0.58787126  0.49847218    -0.78400
C1267       C  0.52585278  0.60190706  0.53386372     0.82400
N1268       N  0.52965795  0.63047019  0.53449936    -0.80100
C1269       C  0.53893146  0.85947903  0.49730621     0.79800
N1270       N  0.53765362  0.87424731  0.53228909    -0.78500
C1271       C  0.53514460  0.90295971  0.53219863     0.82300
N1272       N  0.53425353  0.91715917  0.49708070    -0.78400
C1273       C  0.53539949  0.90260238  0.46205334     0.82400
N1274       N  0.53774084  0.87385147  0.46216000    -0.80100
C1275       C  0.53568014  0.91803558  0.42438876     0.42100
N1276       N  0.52162509  0.94247793  0.37466921     0.01000
C1277       C  0.60155137  0.53166582  0.58853865    -0.06900
H1278       H  0.60381814  0.55389459  0.41383027     0.06500
C1279       C  0.50079332  0.57430115  0.40696860    -0.07300
Co1280     Co  0.57021460  0.96888198  0.66383369     0.74200
N1281       N  0.58746226  0.52135692  0.37430512    -0.26400
Co1282     Co  0.56360440  0.54231131  0.66440328     0.74100
C1283       C  0.52563137  0.58698921  0.42565467     0.42200
N1284       N  0.97073833  0.51105688  0.37630542     0.00600
N1285       N  0.53917974  0.56233639  0.37516875     0.00700
N1286       N  0.60587353  0.98374655  0.59034255    -0.47300
H1287       H  0.58260410  0.92853262  0.41210792     0.06500
N1288       N  0.59017936  0.99342096  0.37374724     0.01000
N1289       N  0.53878908  0.56208578  0.62139175     0.00700
C1290       C  0.52497020  0.58611342  0.57118455     0.42300
N1291       N  0.97337719  0.98309169  0.37594300    -0.25900
C1292       C  0.55998561  0.93074595  0.58932839    -0.06800
N1293       N  0.51234998  0.92657706  0.40461451    -0.47000
N1294       N  0.54816356  0.57796358  0.59153723    -0.47200
C1295       C  0.53528719  0.91871046  0.56977052     0.42100
N1296       N  0.58995038  0.99338360  0.62022216     0.01000
N1297       N  0.97260943  0.98302367  0.62217238    -0.25900
N1298       N  0.54955636  0.94510462  0.37416434    -0.26400
N1299       N  0.96997045  0.51097323  0.62221309     0.00600
H1300       H  0.95556995  0.94996959  0.58420040     0.06500
H1301       H  0.97794877  0.57543215  0.58293095     0.06500
N1302       N  0.58717409  0.52131155  0.62004719    -0.26500
N1303       N  0.51124944  0.55960085  0.37571847    -0.26100
N1304       N  0.52131375  0.94267540  0.62053418     0.01000
C1305       C  0.61460001  0.00678637  0.42391772     0.42400
C1306       C  0.95921244  0.97242007  0.40732604    -0.07300
N1307       N  0.51085185  0.55933996  0.62163313    -0.26100
H1308       H  0.97858267  0.57605636  0.41527573     0.06500
N1309       N  0.60623589  0.98378511  0.40304993    -0.47300
H1310       H  0.95751812  0.95018665  0.41503571     0.06500
C1311       C  0.94476398  0.49689830  0.57296432     0.42200
C1312       C  0.56034379  0.93037311  0.40471502    -0.06800
Co1313     Co  0.99680605  0.96227613  0.66496416     0.73800
N1314       N  0.95529510  0.52045578  0.40686486    -0.47000
C1315       C  0.61403994  0.50671495  0.56938068     0.42500
N1316       N  0.51196146  0.92701230  0.59031772    -0.47000
Co1317     Co  0.99014551  0.53569588  0.33229077     0.73900
C1318       C  0.50020086  0.57374337  0.59062871    -0.07200
C1319       C  0.60205090  0.53173854  0.40545830    -0.06900
N1320       N  0.54926170  0.94524659  0.62046891    -0.26400
N1321       N  0.54871384  0.57849837  0.40473878    -0.47200
H1322       H  0.60326462  0.55381523  0.58038122     0.06500
C1323       C  0.95748232  0.97224129  0.59186546    -0.07300
Cl1324     Cl  0.53018018  0.50231995  0.66469436    -0.50300
C1325       C  0.94735980  0.99719121  0.42746096     0.42200
H1326       H  0.58222847  0.92895411  0.58141620     0.06400
N1327       N  0.95367137  0.52023852  0.59282975    -0.47000
C1328       C  0.55227935  0.78327786  0.53023441    -0.28000
C1329       C  0.54198016  0.76786873  0.49736012     0.01600
C1330       C  0.53148060  0.78272868  0.46410958     0.29700
C1331       C  0.53119591  0.81249415  0.46423885    -0.19800
C1332       C  0.54105750  0.82800247  0.49735934    -0.29200
C1333       C  0.55204944  0.81304281  0.53037344     0.43700
C1334       C  0.54092546  0.73636140  0.49890186     0.04900
O1335       O  0.01966841  0.76832343  0.43255396    -0.57700
H1336       H  0.52236503  0.82341596  0.43872237     0.17900
O1337       O  0.56256369  0.82718729  0.56303289    -0.64400
H1338       H  0.56050034  0.77214271  0.55598399     0.16300
C1339       C  0.55308633  0.71950229  0.46840013     0.28600
C1340       C  0.54977669  0.68994273  0.46896180    -0.25300
C1341       C  0.53527856  0.67653860  0.50047451    -0.24600
C1342       C  0.52416353  0.69338675  0.53195541     0.40000
C1343       C  0.52699674  0.72300082  0.53090922    -0.27000
O1344       O  0.56847614  0.73170058  0.43807480    -0.58900
H1345       H  0.55898420  0.67743194  0.44489371     0.15600
O1346       O  0.00988314  0.68129345  0.56345855    -0.60400
H1347       H  0.01767066  0.73564869  0.55477537     0.14100
H1348       H  0.58278230  0.83099439  0.55648778     0.46000
H1349       H  0.58852091  0.73098446  0.44699547     0.41300
H1350       H  0.98986482  0.67972215  0.55461525     0.44800
H1351       H  0.03270536  0.77150864  0.40960440     0.36300
C1352       C  0.74884088  0.48098450  0.46567915    -0.28000
C1353       C  0.76400877  0.99312828  0.49749791     0.01600
C1354       C  0.74897436  0.00662691  0.52873710     0.29700
C1355       C  0.71927423  0.00733763  0.52826954    -0.19800
C1356       C  0.70399173  0.99528196  0.49651576    -0.29200
C1357       C  0.71907684  0.48216806  0.46482026     0.43700
C1358       C  0.79552048  0.99254166  0.49719835     0.04900
O1359       O  0.76321740  0.02080502  0.55845860    -0.57700
H1360       H  0.70821656  0.01826462  0.55232916     0.17900
O1361       O  0.70499176  0.46981867  0.43343624    -0.64400
H1362       H  0.76013899  0.47059742  0.44136164     0.16300
C1363       C  0.81087368  0.48201040  0.52998906     0.28600
C1364       C  0.84056711  0.48341281  0.53007987    -0.25300
C1365       C  0.85558265  0.99457524  0.49727848    -0.24600
C1366       C  0.84013893  0.00426132  0.46387438     0.40000
C1367       C  0.81042208  0.00315446  0.46406783    -0.27000
O1368       O  0.79708167  0.47013100  0.56204760    -0.58900
H1369       H  0.85187492  0.47536594  0.55577034     0.15600
O1370       O  0.85372935  0.01536838  0.43110758    -0.60400
H1371       H  0.79892622  0.01123774  0.43855258     0.14100
H1372       H  0.70600447  0.48389734  0.41150084     0.46000
H1373       H  0.79223870  0.45053029  0.55344116     0.41300
H1374       H  0.85622454  0.03585366  0.43728105     0.44800
H1375       H  0.75895290  0.01029264  0.58341615     0.36300
C1376       C  0.67263863  0.99806817  0.82970269     0.79800
N1377       N  0.65809675  0.00041449  0.86483341    -0.78500
C1378       C  0.62969864  0.50536525  0.86497105     0.82300
N1379       N  0.61566912  0.50803062  0.82992937    -0.78400
C1380       C  0.62997002  0.50537026  0.79481002     0.82400
N1381       N  0.65834333  0.00026743  0.79469021    -0.80100
C1382       C  0.88708822  0.99594328  0.83170559     0.79800
N1383       N  0.90240766  0.99657473  0.79716872    -0.78500
C1384       C  0.93117366  0.99754719  0.79803747     0.82300
N1385       N  0.94489133  0.99776177  0.83354194    -0.78400
C1386       C  0.92981605  0.99726548  0.86819322     0.82400
N1387       N  0.90098642  0.99617368  0.86728463    -0.80100
C1388       C  0.53171384  0.64522809  0.83311968     0.79800
N1389       N  0.53055020  0.63095437  0.79767283    -0.78500
C1390       C  0.52662834  0.60235466  0.79700704     0.82300
N1391       N  0.52417960  0.58787200  0.83179977    -0.78400
C1392       C  0.52584765  0.60190850  0.86719100     0.82400
N1393       N  0.52964634  0.63047243  0.86782658    -0.80100
C1394       C  0.53893975  0.85947942  0.83064415     0.79800
N1395       N  0.53765911  0.87424706  0.86562743    -0.78500
C1396       C  0.53514441  0.90295909  0.86553741     0.82300
N1397       N  0.53425108  0.91715865  0.83041943    -0.78400
C1398       C  0.53540073  0.90260221  0.79539182     0.82400
N1399       N  0.53774733  0.87385192  0.79549834    -0.80100
C1400       C  0.53568091  0.91803482  0.75772677     0.42100
N1401       N  0.52162641  0.94247180  0.70800196     0.01000
C1402       C  0.60155114  0.53166025  0.92186577    -0.06900
H1403       H  0.60381733  0.55388126  0.74717349     0.06500
C1404       C  0.50079329  0.57429878  0.74029668    -0.07300
Co1405     Co  0.57021122  0.96888487  0.99717044     0.74200
N1406       N  0.58746356  0.52134655  0.70764195    -0.26400
Co1407     Co  0.56360305  0.54231419  0.99772952     0.74100
C1408       C  0.52563030  0.58698867  0.75898304     0.42200
N1409       N  0.97073998  0.51105053  0.70963520     0.00600
N1410       N  0.53918162  0.56232841  0.70850564     0.00700
N1411       N  0.60587282  0.98374117  0.92368107    -0.47300
H1412       H  0.58260519  0.92852767  0.74544206     0.06500
N1413       N  0.59018118  0.99341076  0.70707981     0.01000
N1414       N  0.53878712  0.56208659  0.95471704     0.00700
C1415       C  0.52496686  0.58611495  0.90451157     0.42300
N1416       N  0.97337781  0.98308552  0.70927460    -0.25900
C1417       C  0.55998320  0.93074433  0.92266974    -0.06800
N1418       N  0.51235085  0.92657498  0.73795127    -0.47000
N1419       N  0.54816105  0.57796307  0.92486077    -0.47200
C1420       C  0.53528523  0.91870977  0.90310979     0.42100
N1421       N  0.58994839  0.99338209  0.95355671     0.01000
N1422       N  0.97260688  0.98302871  0.95550402    -0.25900
N1423       N  0.54955784  0.94509681  0.70749527    -0.26400
N1424       N  0.96996705  0.51097872  0.95554557     0.00600
H1425       H  0.95557122  0.94997542  0.91752697     0.06500
H1426       H  0.97794529  0.57543862  0.91626465     0.06500
N1427       N  0.58717229  0.52131006  0.95337573    -0.26500
N1428       N  0.51125118  0.55959415  0.70905186    -0.26100
N1429       N  0.52131037  0.94267822  0.95386985     0.01000
C1430       C  0.61459979  0.00677235  0.75725323     0.42400
C1431       C  0.95921052  0.97241520  0.74065654    -0.07300
N1432       N  0.51084960  0.55934342  0.95496239    -0.26100
H1433       H  0.97858209  0.57605711  0.74859862     0.06500
N1434       N  0.60623710  0.98377264  0.73638146    -0.47300
H1435       H  0.95751458  0.95018201  0.74836691     0.06500
C1436       C  0.94476449  0.49690476  0.90629196     0.42200
C1437       C  0.56034498  0.93036766  0.73804841    -0.06800
Co1438     Co  0.99680250  0.96228111  0.99829810     0.73800
N1439       N  0.95529470  0.52045080  0.74019137    -0.47000
C1440       C  0.61404096  0.50670682  0.90271524     0.42500
N1441       N  0.51195878  0.92701448  0.92365343    -0.47000
Co1442     Co  0.99014892  0.53568899  0.66562299     0.73900
C1443       C  0.50019776  0.57374772  0.92395948    -0.07200
C1444       C  0.60205078  0.53172587  0.73879774    -0.06900
N1445       N  0.54925850  0.94524744  0.95380744    -0.26400
N1446       N  0.54871413  0.57849366  0.73807326    -0.47200
H1447       H  0.60326547  0.55380867  0.91370356     0.06500
C1448       C  0.95748230  0.97224691  0.92519391    -0.07300
Cl1449     Cl  0.53017749  0.50232407  0.99802641    -0.50300
C1450       C  0.94735661  0.99718759  0.76078783     0.42200
H1451       H  0.58222636  0.92895085  0.91476005     0.06400
N1452       N  0.95366961  0.52024448  0.92616061    -0.47000
C1453       C  0.55228487  0.78327738  0.86356979    -0.28000
C1454       C  0.54198027  0.76786968  0.83069763     0.01600
C1455       C  0.53148086  0.78273066  0.79744813     0.29700
C1456       C  0.53120025  0.81249594  0.79757685    -0.19800
C1457       C  0.54106615  0.82800311  0.83069577    -0.29200
C1458       C  0.55205972  0.81304254  0.86370773     0.43700
C1459       C  0.54092126  0.73636275  0.83223825     0.04900
O1460       O  0.01966237  0.76832636  0.76589694    -0.57700
H1461       H  0.52236846  0.82341859  0.77206169     0.17900
O1462       O  0.56258001  0.82718656  0.89636364    -0.64400
H1463       H  0.56050645  0.77214111  0.88931802     0.16300
C1464       C  0.55308185  0.71950358  0.80173661     0.28600
C1465       C  0.54976706  0.68994473  0.80229374    -0.25300
C1466       C  0.53526455  0.67654099  0.83380268    -0.24600
C1467       C  0.52414959  0.69338901  0.86528402     0.40000
C1468       C  0.52698755  0.72300282  0.86424179    -0.27000
O1469       O  0.56847715  0.73170116  0.77141622    -0.58900
H1470       H  0.55897514  0.67743395  0.77822607     0.15600
O1471       O  0.00986490  0.68129564  0.89678416    -0.60400
H1472       H  0.01766110  0.73565092  0.88810857     0.14100
H1473       H  0.58280420  0.83097065  0.88982629     0.46000
H1474       H  0.58851929  0.73099301  0.78034969     0.41300
H1475       H  0.98984780  0.67972386  0.88793578     0.44800
H1476       H  0.03270043  0.77150520  0.74294682     0.36300
C1477       C  0.74884628  0.48101063  0.79898780    -0.28000
C1478       C  0.76401027  0.99313893  0.83082158     0.01600
C1479       C  0.74897211  0.00660732  0.86208243     0.29700
C1480       C  0.71927196  0.00730845  0.86161738    -0.19800
C1481       C  0.70399247  0.99527028  0.82984743    -0.29200
C1482       C  0.71908152  0.48218146  0.79813454     0.43700
C1483       C  0.79552159  0.99256313  0.83052181     0.04900
O1484       O  0.76321112  0.02076492  0.89182687    -0.57700
H1485       H  0.70821193  0.01821446  0.88569359     0.17900
O1486       O  0.70499993  0.46984402  0.76673808    -0.64400
H1487       H  0.76014784  0.47064472  0.77465559     0.16300
C1488       C  0.81087601  0.48200016  0.86329006     0.28600
C1489       C  0.84056879  0.48340953  0.86338642    -0.25300
C1490       C  0.85558209  0.99460926  0.83061030    -0.24600
C1491       C  0.84013818  0.00433146  0.79722790     0.40000
C1492       C  0.81042134  0.00321808  0.79741648    -0.27000
O1493       O  0.79708526  0.47008062  0.89531971    -0.58900
H1494       H  0.85187826  0.47533528  0.88905844     0.15600
O1495       O  0.85372899  0.01547941  0.76448911    -0.60400
H1496       H  0.79892403  0.01132731  0.77191887     0.14100
H1497       H  0.70601564  0.48393056  0.74481290     0.46000
H1498       H  0.79227281  0.45047937  0.88668174     0.41300
H1499       H  0.85621997  0.03595799  0.77071048     0.44800
H1500       H  0.75895601  0.01022581  0.91676497     0.36300
loop_ 
_geom_bond_atom_site_label_1 
_geom_bond_atom_site_label_2 
_geom_bond_distance 
_geom_bond_site_symmetry_2 
_ccdc_geom_bond_type 
C1            N2   1.361       .  A
C1            N6   1.359       .  A
C1          C106   1.481       .  S
N2          C378   1.356       .  A
C3            N4   1.355       .  A
C3          N377   1.356       .  A
C3           C65   1.459       .  S
N4            C5   1.356       .  A
C5          N381   1.357       .  A
C5          C430   1.455       .  S
N6          C380   1.357       .  A
C7            N8   1.359       .  A
C7           N12   1.362       .  A
C7          C115   1.485       .  S
N8            C9   1.355       .  A
C9           N10   1.355       .  A
C9           C75   1.457       .  S
N10          C11   1.356       .  A
C11          N12   1.358       .  A
C11         C436   1.460       .  S
C13          N14   1.361       .  A
C13          N18   1.359       .  A
C13          C91   1.483       .  S
N14          C15   1.358       .  A
C15          N16   1.356       .  A
C15          C33   1.461       .  S
N16          C17   1.356       .  A
C17          N18   1.356       .  A
C17          C40   1.456       .  S
C19          N20   1.359       .  A
C19          N24   1.361       .  A
C19          C82   1.484       .  S
N20          C21   1.356       .  A
C21          N22   1.355       .  A
C21          C45   1.456       .  S
N22          C23   1.355       .  A
C23          N24   1.357       .  A
C23          C25   1.457       .  S
C25          N43   1.347       .  A
C25          C62   1.453       .  S
N26          N43   1.325       .  A
N26          N48   1.320       .  A
N26       Co1063   2.084   1_454  S
C27          N52   1.343       .  A
C27          C65   1.457       .  S
C27          H72   1.081       .  S
H28          C69   1.081       .  S
C29          N53   1.342       .  A
C29          C33   1.456       .  S
C29         H808   1.081   1_455  S
Co30         N70   2.077       .  S
Co30         N46   2.079       .  S
Co30        N173   2.081       .  S
Co30        N163   2.076       .  S
Co30       Cl449   2.454       .  S
N31          C69   1.342       .  A
N31         N413   1.321   1_545  A
N31        Co282   2.088   1_554  S
Co32         N52   2.092       .  S
Co32         N39   2.081       .  S
Co32        N156   2.088       .  S
Co32        N160   2.086       .  S
Co32        Cl74   2.453       .  S
C33          N71   1.348       .  A
N34          N64   1.325       .  A
N34         N416   1.321   1_545  A
N34         Co67   2.085   1_554  S
N35          N53   1.321       .  A
N35          N71   1.325       .  A
N35        Co282   2.086   1_554  S
N36         C440   1.346       .  A
N36          N46   1.324       .  A
H37          C62   1.081       .  S
N38          N59   1.323       .  A
N38         N406   1.321       .  A
N38        Co280   2.076   1_554  S
N39          N57   1.321       .  A
N39          N44   1.324       .  A
C40          N44   1.346       .  A
C40          C68   1.454       .  S
N41          C56   1.340       .  A
N41         N409   1.321       .  A
N41        Co313   2.083   1_554  S
C42          N70   1.339       .  A
C42          C45   1.451       .  S
C42          H76   1.081       .  S
C45          N66   1.348       .  A
N46         N427   1.321       .  A
N47          C73   1.340       .  A
N47         N424   1.320       .  A
N47         Co63   2.081       .  S
N48          C62   1.340       .  A
N48        Co280   2.081   1_554  S
N49          N77   1.326       .  A
N49         N422   1.320   1_545  A
N49        Co192   2.089       .  S
H50          C73   1.081       .  S
H51         C818   1.081       .  S
N52         N421   1.321   1_545  A
N53        Co817   2.088   1_454  S
N54          N66   1.326       .  A
N54          N70   1.321       .  A
N54        Co813   2.088   1_455  S
C55          N59   1.345       .  A
C55         C380   1.455       .  S
C55         C444   1.456       .  S
C56          C75   1.453       .  S
C56          H60   1.081       .  S
N57          C68   1.341       .  A
N57        Co942   2.085   1_455  S
H58         C779   1.081       .  S
C61          N77   1.349   1_565  A
C61         C386   1.460       .  S
C61         C448   1.454       .  S
Co63        N901   2.084       .  S
Co63        N166   2.083       .  S
Co63        N804   2.088       .  S
Co63      Cl1199   2.453       .  S
N64         C450   1.347   1_545  A
C65         N411   1.346   1_545  A
Co67        N299   2.089       .  S
Co67        N803   2.088   1_556  S
Co67       N1057   2.085       .  S
Co67      Cl1074   2.452       .  S
C68         H801   1.081   1_455  S
C69         C430   1.456       .  S
C73         C436   1.454       .  S
Cl74       Co405   2.454   1_545  S
Cl74      Co1188   2.453   1_445  S
Cl74       Co942   2.452   1_455  S
C75         N439   1.347       .  A
C78          H88   1.084       .  S
C78          C79   1.403       .  A
C78          C83   1.400       .  A
C79          C84   1.484       .  S
C79          C80   1.409       .  A
C80          C81   1.400       .  A
C80         O835   1.373       .  S
C81          H86   1.083       .  S
C81          C82   1.405       .  A
C82          C83   1.413       .  A
C83          O87   1.372       .  S
C84          C89   1.408       .  A
C84          C93   1.403       .  A
O85         C830   1.373       .  S
O85         H101   0.992       .  S
O87          H98   0.992       .  S
C89          C90   1.399       .  A
C89          O94   1.371       .  S
C90          H95   1.083       .  S
C90          C91   1.405       .  A
C91          C92   1.413       .  A
C92          C93   1.400       .  A
C92         O846   1.372       .  S
C93         H847   1.084       .  S
O94          H99   0.992       .  S
O96         C842   1.372       .  S
O96         H100   0.992       .  S
H97         C843   1.084       .  S
C102        H112   1.084       .  S
C102        C107   1.402       .  A
C102        C478   1.404       .  A
C103        C108   1.483       .  S
C103        C104   1.407       .  A
C103        C477   1.404       .  A
C104        C105   1.398       .  A
C104        O109   1.373       .  S
C105        H110   1.083       .  S
C105        C106   1.404       .  A
C106        C482   1.412       .  A
C107        C481   1.412       .  A
C107        O111   1.372       .  S
C108        C117   1.402       .  A
C108        C488   1.409       .  A
O109        H125   0.992       .  S
O111        H122   0.992       .  S
C113        C114   1.399       .  A
C113        C483   1.409       .  A
C113        O118   1.372       .  S
C114        H119   1.083       .  S
C114        C490   1.406       .  A
C115        C116   1.414       .  A
C115        C489   1.406       .  A
C116        C117   1.399       .  A
C116        O120   1.372       .  S
C117        H121   1.084       .  S
O118        H123   0.992       .  S
O120        H124   0.992       .  S
C126        N127   1.361       .  A
C126        N131   1.359       .  A
C126        C231   1.481       .  S
N127        C503   1.356       .  A
C128        N502   1.356       .  A
C128        N129   1.355       .  A
C128        C190   1.459       .  S
N129        C130   1.356       .  A
C130        N506   1.357       .  A
C130        C555   1.455       .  S
N131        C505   1.357       .  A
C132        N133   1.359       .  A
C132        N137   1.362       .  A
C132        C240   1.485       .  S
N133        C134   1.355       .  A
C134        N135   1.355       .  A
C134        C200   1.457       .  S
N135        C136   1.356       .  A
C136        N137   1.358       .  A
C136        C561   1.460       .  S
C138        N139   1.361       .  A
C138        N143   1.359       .  A
C138        C216   1.483       .  S
N139        C140   1.358       .  A
C140        N141   1.356       .  A
C140        C158   1.461       .  S
N141        C142   1.356       .  A
C142        N143   1.356       .  A
C142        C165   1.456       .  S
C144        N145   1.359       .  A
C144        N149   1.361       .  A
C144        C207   1.484       .  S
N145        C146   1.356       .  A
C146        N147   1.355       .  A
C146        C170   1.456       .  S
N147        C148   1.355       .  A
C148        N149   1.357       .  A
C148        C150   1.457       .  S
C150        N168   1.347       .  A
C150        C187   1.453       .  S
N151        N168   1.325       .  A
N151        N173   1.320       .  A
N151       Co813   2.084   1_455  S
C152        N177   1.343       .  A
C152        C190   1.457       .  S
C152        H197   1.081       .  S
H153        C194   1.081       .  S
C154        N178   1.342       .  A
C154        C158   1.456       .  S
C154        H933   1.081   1_455  S
Co155       N298   2.081       .  S
Co155       N288   2.076       .  S
Co155       N195   2.077       .  S
Co155       N171   2.079       .  S
Co155      Cl574   2.454       .  S
N156        C194   1.342       .  A
N156        N538   1.321   1_545  A
Co157       N281   2.088       .  S
Co157       N285   2.086       .  S
Co157       N177   2.092       .  S
Co157       N164   2.081       .  S
Co157      Cl199   2.453       .  S
C158        N196   1.348       .  A
N159        N541   1.321   1_545  A
N159        N189   1.325       .  A
N159       Co192   2.085       .  S
N160        N178   1.321       .  A
N160        N196   1.325       .  A
N161        C565   1.346       .  A
N161        N171   1.324       .  A
H162        C187   1.081       .  S
N163        N531   1.321       .  A
N163        N184   1.323       .  A
N164        N182   1.321       .  A
N164        N169   1.324       .  A
C165        N169   1.346       .  A
C165        C193   1.454       .  S
N166        C181   1.340       .  A
N166        N534   1.321       .  A
C167        N195   1.339       .  A
C167        C170   1.451       .  S
C167        H201   1.081       .  S
C170        N191   1.348       .  A
N171        N552   1.321       .  A
N172        C198   1.340       .  A
N172        N549   1.320       .  A
N172       Co188   2.081       .  S
N173        C187   1.340       .  A
N174        N547   1.320   1_545  A
N174        N202   1.326       .  A
N174       Co317   2.089       .  S
H175        C198   1.081       .  S
H176        C943   1.081       .  S
N177        N546   1.321   1_545  A
N178       Co942   2.088   1_455  S
N179        N191   1.326       .  A
N179        N195   1.321       .  A
N179       Co938   2.088   1_455  S
C180        N184   1.345       .  A
C180        C505   1.455       .  S
C180        C569   1.456       .  S
C181        C200   1.453       .  S
C181        H185   1.081       .  S
N182        C193   1.341       .  A
N182      Co1067   2.085   1_455  S
H183        C904   1.081       .  S
C186        N202   1.349   1_565  A
C186        C511   1.460       .  S
C186        C573   1.454       .  S
Co188      N1026   2.084       .  S
Co188       N291   2.083       .  S
Co188       N929   2.088       .  S
Co188     Cl1324   2.453       .  S
N189        C575   1.347   1_545  A
C190        N536   1.346   1_545  A
Co192       N928   2.088       .  S
Co192       N807   2.085       .  S
Co192      Cl824   2.452       .  S
C193        H926   1.081   1_455  S
C194        C555   1.456       .  S
C198        C561   1.454       .  S
Cl199      Co530   2.454   1_545  S
Cl199     Co1313   2.453   1_445  S
Cl199     Co1067   2.452   1_455  S
C200        N564   1.347       .  A
C203        H213   1.084       .  S
C203        C204   1.403       .  A
C203        C208   1.400       .  A
C204        C209   1.484       .  S
C204        C205   1.409       .  A
C205        C206   1.400       .  A
C205        O960   1.373       .  S
C206        H211   1.083       .  S
C206        C207   1.405       .  A
C207        C208   1.413       .  A
C208        O212   1.372       .  S
C209        C214   1.408       .  A
C209        C218   1.403       .  A
O210        C955   1.373       .  S
O210        H226   0.992       .  S
O212        H223   0.992       .  S
C214        C215   1.399       .  A
C214        O219   1.371       .  S
C215        H220   1.083       .  S
C215        C216   1.405       .  A
C216        C217   1.413       .  A
C217        C218   1.400       .  A
C217        O971   1.372       .  S
C218        H972   1.084       .  S
O219        H224   0.992       .  S
O221        C967   1.372       .  S
O221        H225   0.992       .  S
H222        C968   1.084       .  S
C227        H237   1.084       .  S
C227        C603   1.404       .  A
C227        C232   1.402       .  A
C228        C233   1.483       .  S
C228        C602   1.404       .  A
C228        C229   1.407       .  A
C229        C230   1.398       .  A
C229        O234   1.373       .  S
C230        H235   1.083       .  S
C230        C231   1.404       .  A
C231        C607   1.412       .  A
C232        C606   1.412       .  A
C232        O236   1.372       .  S
C233        C613   1.409       .  A
C233        C242   1.402       .  A
O234        H250   0.992       .  S
O236        H247   0.992       .  S
C238        C608   1.409       .  A
C238        C239   1.399       .  A
C238        O243   1.372       .  S
C239        H244   1.083       .  S
C239        C615   1.406       .  A
C240        C614   1.406       .  A
C240        C241   1.414       .  A
C241        C242   1.399       .  A
C241        O245   1.372       .  S
C242        H246   1.084       .  S
O243        H248   0.992       .  S
O245        H249   0.992       .  S
C251        N252   1.361       .  A
C251        N256   1.359       .  A
C251        C356   1.481       .  S
N252        C628   1.356       .  A
C253        N627   1.356       .  A
C253        N254   1.355       .  A
C253        C315   1.459       .  S
N254        C255   1.356       .  A
C255        N631   1.357       .  A
C255        C680   1.455       .  S
N256        C630   1.357       .  A
C257        N258   1.359       .  A
C257        N262   1.362       .  A
C257        C365   1.485       .  S
N258        C259   1.355       .  A
C259        N260   1.355       .  A
C259        C325   1.457       .  S
N260        C261   1.356       .  A
C261        N262   1.358       .  A
C261        C686   1.460       .  S
C263        N264   1.361       .  A
C263        N268   1.359       .  A
C263        C341   1.483       .  S
N264        C265   1.358       .  A
C265        N266   1.356       .  A
C265        C283   1.461       .  S
N266        C267   1.356       .  A
C267        N268   1.356       .  A
C267        C290   1.456       .  S
C269        N270   1.359       .  A
C269        N274   1.361       .  A
C269        C332   1.484       .  S
N270        C271   1.356       .  A
C271        N272   1.355       .  A
C271        C295   1.456       .  S
N272        C273   1.355       .  A
C273        N274   1.357       .  A
C273        C275   1.457       .  S
C275        N293   1.347       .  A
C275        C312   1.453       .  S
N276        N293   1.325       .  A
N276        N298   1.320       .  A
N276       Co938   2.084   1_455  S
C277        N302   1.343       .  A
C277        C315   1.457       .  S
C277        H322   1.081       .  S
H278        C319   1.081       .  S
C279        N303   1.342       .  A
C279        C283   1.456       .  S
C279       H1058   1.081   1_455  S
Co280       N320   2.077       .  S
Co280       N296   2.079       .  S
Co280      Cl699   2.454       .  S
N281        C319   1.342       .  A
N281        N663   1.321   1_545  A
Co282       N302   2.092       .  S
Co282       N289   2.081       .  S
Co282      Cl324   2.453       .  S
C283        N321   1.348       .  A
N284        N666   1.321   1_545  A
N284        N314   1.325       .  A
N284       Co317   2.085       .  S
N285        N303   1.321       .  A
N285        N321   1.325       .  A
N286        C690   1.346       .  A
N286        N296   1.324       .  A
H287        C312   1.081       .  S
N288        N656   1.321       .  A
N288        N309   1.323       .  A
N289        N307   1.321       .  A
N289        N294   1.324       .  A
C290        N294   1.346       .  A
C290        C318   1.454       .  S
N291        C306   1.340       .  A
N291        N659   1.321       .  A
C292        N320   1.339       .  A
C292        C295   1.451       .  S
C292        H326   1.081       .  S
C295        N316   1.348       .  A
N296        N677   1.321       .  A
N297        C323   1.340       .  A
N297        N674   1.320       .  A
N297       Co313   2.081       .  S
N298        C312   1.340       .  A
N299        N672   1.320   1_545  A
N299        N327   1.326       .  A
H300        C323   1.081       .  S
H301       C1068   1.081       .  S
N302        N671   1.321   1_545  A
N303      Co1067   2.088   1_455  S
N304        N316   1.326       .  A
N304        N320   1.321       .  A
N304      Co1063   2.088   1_455  S
C305        N309   1.345       .  A
C305        C630   1.455       .  S
C305        C694   1.456       .  S
C306        C325   1.453       .  S
C306        H310   1.081       .  S
N307        C318   1.341       .  A
N307       Co817   2.085   1_455  S
H308       C1029   1.081       .  S
C311        N327   1.349   1_565  A
C311        C636   1.460       .  S
C311        C698   1.454       .  S
Co313       N776   2.084   1_556  S
Co313      N1054   2.088       .  S
Co313     Cl1449   2.453       .  S
N314        C700   1.347   1_545  A
C315        N661   1.346   1_545  A
Co317      N1053   2.088       .  S
Co317       N932   2.085       .  S
Co317      Cl949   2.452       .  S
C318       H1051   1.081   1_455  S
C319        C680   1.456       .  S
C323        C686   1.454       .  S
Cl324      Co655   2.454   1_545  S
Cl324     Co1438   2.453   1_445  S
Cl324      Co817   2.452   1_455  S
C325        N689   1.347       .  A
C328        H338   1.084       .  S
C328        C329   1.403       .  A
C328        C333   1.400       .  A
C329        C334   1.484       .  S
C329        C330   1.409       .  A
C330        C331   1.400       .  A
C330       O1085   1.373       .  S
C331        H336   1.083       .  S
C331        C332   1.405       .  A
C332        C333   1.413       .  A
C333        O337   1.372       .  S
C334        C339   1.408       .  A
C334        C343   1.403       .  A
O335       C1080   1.373       .  S
O335        H351   0.992       .  S
O337        H348   0.992       .  S
C339        C340   1.399       .  A
C339        O344   1.371       .  S
C340        H345   1.083       .  S
C340        C341   1.405       .  A
C341        C342   1.413       .  A
C342        C343   1.400       .  A
C342       O1096   1.372       .  S
C343       H1097   1.084       .  S
O344        H349   0.992       .  S
O346       C1092   1.372       .  S
O346        H350   0.992       .  S
H347       C1093   1.084       .  S
C352        H362   1.084       .  S
C352        C728   1.404       .  A
C352        C357   1.402       .  A
C353        C358   1.483       .  S
C353        C727   1.404       .  A
C353        C354   1.407       .  A
C354        C355   1.398       .  A
C354        O359   1.373       .  S
C355        H360   1.083       .  S
C355        C356   1.404       .  A
C356        C732   1.412       .  A
C357        C731   1.412       .  A
C357        O361   1.372       .  S
C358        C738   1.409       .  A
C358        C367   1.402       .  A
O359        H375   0.992       .  S
O361        H372   0.992       .  S
C363        C733   1.409       .  A
C363        C364   1.399       .  A
C363        O368   1.372       .  S
C364        H369   1.083       .  S
C364        C740   1.406       .  A
C365        C739   1.406       .  A
C365        C366   1.414       .  A
C366        C367   1.399       .  A
C366        O370   1.372       .  S
C367        H371   1.084       .  S
O368        H373   0.992       .  S
O370        H374   0.992       .  S
C376        N377   1.361   1_565  A
C376        N381   1.359   1_565  A
C376        C481   1.481       .  S
C378        N379   1.355       .  A
C378        C440   1.459       .  S
N379        C380   1.356       .  A
C382        N383   1.359       .  A
C382        N387   1.362       .  A
C382        C490   1.485       .  S
N383        C384   1.355       .  A
C384        N385   1.355       .  A
C384        C450   1.457       .  S
N385        C386   1.356       .  A
C386        N387   1.358       .  A
C388        N389   1.361       .  A
C388        N393   1.359       .  A
C388        C466   1.483       .  S
N389        C390   1.358       .  A
C390        N391   1.356       .  A
C390        C408   1.461       .  S
N391        C392   1.356       .  A
C392        N393   1.356       .  A
C392        C415   1.456       .  S
C394        N395   1.359       .  A
C394        N399   1.361       .  A
C394        C457   1.484       .  S
N395        C396   1.356       .  A
C396        N397   1.355       .  A
C396        C420   1.456       .  S
N397        C398   1.355       .  A
C398        N399   1.357       .  A
C398        C400   1.457       .  S
C400        N418   1.347       .  A
C400        C437   1.453       .  S
N401        N418   1.325       .  A
N401        N423   1.320       .  A
N401      Co1438   2.084   1_454  S
C402        N427   1.343       .  A
C402        C440   1.457       .  S
C402        H447   1.081       .  S
H403        C444   1.081       .  S
C404        N428   1.342       .  A
C404        C408   1.456       .  S
C404       H1183   1.081   1_455  S
Co405       N548   2.081       .  S
Co405       N538   2.076       .  S
Co405       N445   2.077       .  S
Co405       N421   2.079       .  S
N406        C444   1.342       .  A
N406       Co657   2.088   1_554  S
Co407       N531   2.088       .  S
Co407       N535   2.086       .  S
Co407       N427   2.092       .  S
Co407       N414   2.081       .  S
Co407      Cl449   2.453       .  S
C408        N446   1.348       .  A
N409        N439   1.325       .  A
N409       Co442   2.085   1_554  S
N410        N428   1.321       .  A
N410        N446   1.325       .  A
N410       Co657   2.086   1_554  S
N411        N421   1.324       .  A
H412        C437   1.081       .  S
N413        N434   1.323       .  A
N413       Co655   2.076   1_554  S
N414        N432   1.321       .  A
N414        N419   1.324       .  A
C415        N419   1.346       .  A
C415        C443   1.454       .  S
N416        C431   1.340       .  A
N416       Co688   2.083   1_554  S
C417        N445   1.339       .  A
C417        C420   1.451       .  S
C417        H451   1.081       .  S
C420        N441   1.348       .  A
N422        C448   1.340       .  A
N422       Co438   2.081       .  S
N423        C437   1.340       .  A
N423       Co655   2.081   1_554  S
N424        N452   1.326       .  A
N424       Co567   2.089       .  S
H425        C448   1.081       .  S
H426       C1193   1.081       .  S
N428      Co1192   2.088   1_454  S
N429        N441   1.326       .  A
N429        N445   1.321       .  A
N429      Co1188   2.088   1_455  S
C430        N434   1.345   1_545  A
C431        C450   1.453       .  S
C431        H435   1.081       .  S
N432        C443   1.341       .  A
N432      Co1317   2.085   1_455  S
H433       C1154   1.081       .  S
C436        N452   1.349       .  A
Co438      N1276   2.084       .  S
Co438       N541   2.083       .  S
Co438      N1179   2.088       .  S
Co438      Cl824   2.453   1_565  S
Co442       N674   2.089       .  S
Co442      N1178   2.088   1_556  S
Co442      N1432   2.085       .  S
Co442     Cl1449   2.452       .  S
C443       H1176   1.081   1_455  S
Cl449      Co813   2.453   1_455  S
Cl449     Co1317   2.452   1_455  S
C453        H463   1.084       .  S
C453        C454   1.403       .  A
C453        C458   1.400       .  A
C454        C459   1.484       .  S
C454        C455   1.409       .  A
C455        C456   1.400       .  A
C455       O1210   1.373       .  S
C456        H461   1.083       .  S
C456        C457   1.405       .  A
C457        C458   1.413       .  A
C458        O462   1.372       .  S
C459        C464   1.408       .  A
C459        C468   1.403       .  A
O460       C1205   1.373       .  S
O460        H476   0.992       .  S
O462        H473   0.992       .  S
C464        C465   1.399       .  A
C464        O469   1.371       .  S
C465        H470   1.083       .  S
C465        C466   1.405       .  A
C466        C467   1.413       .  A
C467        C468   1.400       .  A
C467       O1221   1.372       .  S
C468       H1222   1.084       .  S
O469        H474   0.992       .  S
O471       C1217   1.372       .  S
O471        H475   0.992       .  S
H472       C1218   1.084       .  S
C477        H487   1.084       .  S
C477        C482   1.402       .  A
C478        C483   1.483       .  S
C478        C479   1.407   1_565  A
C479        C480   1.398       .  A
C479        O484   1.373       .  S
C480        H485   1.083       .  S
C480        C481   1.404   1_545  A
C482        O486   1.372       .  S
C483        C492   1.402   1_565  A
O484        H500   0.992       .  S
O486        H497   0.992       .  S
C488        C489   1.399       .  A
C488        O493   1.372       .  S
C489        H494   1.083       .  S
C490        C491   1.414   1_565  A
C491        C492   1.399       .  A
C491        O495   1.372       .  S
C492        H496   1.084       .  S
O493        H498   0.992       .  S
O495        H499   0.992       .  S
C501        N502   1.361   1_565  A
C501        N506   1.359   1_565  A
C501        C606   1.481       .  S
C503        N504   1.355       .  A
C503        C565   1.459       .  S
N504        C505   1.356       .  A
C507        N508   1.359       .  A
C507        N512   1.362       .  A
C507        C615   1.485       .  S
N508        C509   1.355       .  A
C509        N510   1.355       .  A
C509        C575   1.457       .  S
N510        C511   1.356       .  A
C511        N512   1.358       .  A
C513        N514   1.361       .  A
C513        N518   1.359       .  A
C513        C591   1.483       .  S
N514        C515   1.358       .  A
C515        N516   1.356       .  A
C515        C533   1.461       .  S
N516        C517   1.356       .  A
C517        N518   1.356       .  A
C517        C540   1.456       .  S
C519        N520   1.359       .  A
C519        N524   1.361       .  A
C519        C582   1.484       .  S
N520        C521   1.356       .  A
C521        N522   1.355       .  A
C521        C545   1.456       .  S
N522        C523   1.355       .  A
C523        N524   1.357       .  A
C523        C525   1.457       .  S
C525        N543   1.347       .  A
C525        C562   1.453       .  S
N526        N543   1.325       .  A
N526        N548   1.320       .  A
N526      Co1188   2.084   1_455  S
C527        N552   1.343       .  A
C527        C565   1.457       .  S
C527        H572   1.081       .  S
H528        C569   1.081       .  S
C529        N553   1.342       .  A
C529        C533   1.456       .  S
C529       H1308   1.081   1_455  S
Co530       N673   2.081       .  S
Co530       N663   2.076       .  S
Co530       N570   2.077       .  S
Co530       N546   2.079       .  S
N531        C569   1.342       .  A
Co532       N656   2.088       .  S
Co532       N660   2.086       .  S
Co532       N552   2.092       .  S
Co532       N539   2.081       .  S
Co532      Cl574   2.453       .  S
C533        N571   1.348       .  A
N534        N564   1.325       .  A
N534       Co567   2.085       .  S
N535        N553   1.321       .  A
N535        N571   1.325       .  A
N536        N546   1.324       .  A
H537        C562   1.081       .  S
N538        N559   1.323       .  A
N539        N557   1.321       .  A
N539        N544   1.324       .  A
C540        N544   1.346       .  A
C540        C568   1.454       .  S
N541        C556   1.340       .  A
C542        N570   1.339       .  A
C542        C545   1.451       .  S
C542        H576   1.081       .  S
C545        N566   1.348       .  A
N547        C573   1.340       .  A
N547       Co563   2.081       .  S
N548        C562   1.340       .  A
N549        N577   1.326       .  A
N549       Co692   2.089       .  S
H550        C573   1.081       .  S
H551       C1318   1.081       .  S
N553      Co1317   2.088   1_455  S
N554        N566   1.326       .  A
N554        N570   1.321       .  A
N554      Co1313   2.088   1_455  S
C555        N559   1.345   1_545  A
C556        C575   1.453       .  S
C556        H560   1.081       .  S
N557        C568   1.341       .  A
N557      Co1442   2.085   1_455  S
H558       C1279   1.081       .  S
C561        N577   1.349       .  A
Co563      N1401   2.084       .  S
Co563       N666   2.083       .  S
Co563      N1304   2.088       .  S
Co563      Cl949   2.453   1_565  S
Co567      N1303   2.088       .  S
Co567      N1182   2.085       .  S
Co567     Cl1199   2.452       .  S
C568       H1301   1.081   1_455  S
Cl574      Co938   2.453   1_455  S
Cl574     Co1442   2.452   1_455  S
C578        H588   1.084       .  S
C578        C579   1.403       .  A
C578        C583   1.400       .  A
C579        C584   1.484       .  S
C579        C580   1.409       .  A
C580        C581   1.400       .  A
C580       O1335   1.373       .  S
C581        H586   1.083       .  S
C581        C582   1.405       .  A
C582        C583   1.413       .  A
C583        O587   1.372       .  S
C584        C589   1.408       .  A
C584        C593   1.403       .  A
O585       C1330   1.373       .  S
O585        H601   0.992       .  S
O587        H598   0.992       .  S
C589        C590   1.399       .  A
C589        O594   1.371       .  S
C590        H595   1.083       .  S
C590        C591   1.405       .  A
C591        C592   1.413       .  A
C592        C593   1.400       .  A
C592       O1346   1.372       .  S
C593       H1347   1.084       .  S
O594        H599   0.992       .  S
O596       C1342   1.372       .  S
O596        H600   0.992       .  S
H597       C1343   1.084       .  S
C602        H612   1.084       .  S
C602        C607   1.402       .  A
C603        C608   1.483       .  S
C603        C604   1.407   1_565  A
C604        C605   1.398       .  A
C604        O609   1.373       .  S
C605        H610   1.083       .  S
C605        C606   1.404   1_545  A
C607        O611   1.372       .  S
C608        C617   1.402   1_565  A
O609        H625   0.992       .  S
O611        H622   0.992       .  S
C613        C614   1.399       .  A
C613        O618   1.372       .  S
C614        H619   1.083       .  S
C615        C616   1.414   1_565  A
C616        C617   1.399       .  A
C616        O620   1.372       .  S
C617        H621   1.084       .  S
O618        H623   0.992       .  S
O620        H624   0.992       .  S
C626        N627   1.361   1_565  A
C626        N631   1.359   1_565  A
C626        C731   1.481       .  S
C628        N629   1.355       .  A
C628        C690   1.459       .  S
N629        C630   1.356       .  A
C632        N633   1.359       .  A
C632        N637   1.362       .  A
C632        C740   1.485       .  S
N633        C634   1.355       .  A
C634        N635   1.355       .  A
C634        C700   1.457       .  S
N635        C636   1.356       .  A
C636        N637   1.358       .  A
C638        N639   1.361       .  A
C638        N643   1.359       .  A
C638        C716   1.483       .  S
N639        C640   1.358       .  A
C640        N641   1.356       .  A
C640        C658   1.461       .  S
N641        C642   1.356       .  A
C642        N643   1.356       .  A
C642        C665   1.456       .  S
C644        N645   1.359       .  A
C644        N649   1.361       .  A
C644        C707   1.484       .  S
N645        C646   1.356       .  A
C646        N647   1.355       .  A
C646        C670   1.456       .  S
N647        C648   1.355       .  A
C648        N649   1.357       .  A
C648        C650   1.457       .  S
C650        N668   1.347       .  A
C650        C687   1.453       .  S
N651        N668   1.325       .  A
N651        N673   1.320       .  A
N651      Co1313   2.084   1_455  S
C652        N677   1.343       .  A
C652        C690   1.457       .  S
C652        H697   1.081       .  S
H653        C694   1.081       .  S
C654        N678   1.342       .  A
C654        C658   1.456       .  S
C654       H1433   1.081   1_455  S
Co655       N695   2.077       .  S
Co655       N671   2.079       .  S
N656        C694   1.342       .  A
Co657       N677   2.092       .  S
Co657       N664   2.081       .  S
Co657      Cl699   2.453       .  S
C658        N696   1.348       .  A
N659        N689   1.325       .  A
N659       Co692   2.085       .  S
N660        N678   1.321       .  A
N660        N696   1.325       .  A
N661        N671   1.324       .  A
H662        C687   1.081       .  S
N663        N684   1.323       .  A
N664        N682   1.321       .  A
N664        N669   1.324       .  A
C665        N669   1.346       .  A
C665        C693   1.454       .  S
N666        C681   1.340       .  A
C667        N695   1.339       .  A
C667        C670   1.451       .  S
C667        H701   1.081       .  S
C670        N691   1.348       .  A
N672        C698   1.340       .  A
N672       Co688   2.081       .  S
N673        C687   1.340       .  A
N674        N702   1.326       .  A
H675        C698   1.081       .  S
H676       C1443   1.081       .  S
N678      Co1442   2.088   1_455  S
N679        N691   1.326       .  A
N679        N695   1.321       .  A
N679      Co1438   2.088   1_455  S
C680        N684   1.345   1_545  A
C681        C700   1.453       .  S
C681        H685   1.081       .  S
N682        C693   1.341       .  A
N682      Co1192   2.085   1_455  S
H683       C1404   1.081       .  S
C686        N702   1.349       .  A
Co688      N1151   2.084   1_556  S
Co688      N1429   2.088       .  S
Co688     Cl1074   2.453   1_565  S
Co692      N1428   2.088       .  S
Co692      N1307   2.085       .  S
Co692     Cl1324   2.452       .  S
C693       H1426   1.081   1_455  S
Cl699     Co1063   2.453   1_455  S
Cl699     Co1192   2.452   1_455  S
C703        H713   1.084       .  S
C703        C704   1.403       .  A
C703        C708   1.400       .  A
C704        C709   1.484       .  S
C704        C705   1.409       .  A
C705        C706   1.400       .  A
C705       O1460   1.373       .  S
C706        H711   1.083       .  S
C706        C707   1.405       .  A
C707        C708   1.413       .  A
C708        O712   1.372       .  S
C709        C714   1.408       .  A
C709        C718   1.403       .  A
O710       C1455   1.373       .  S
O710        H726   0.992       .  S
O712        H723   0.992       .  S
C714        C715   1.399       .  A
C714        O719   1.371       .  S
C715        H720   1.083       .  S
C715        C716   1.405       .  A
C716        C717   1.413       .  A
C717        C718   1.400       .  A
C717       O1471   1.372       .  S
C718       H1472   1.084       .  S
O719        H724   0.992       .  S
O721       C1467   1.372       .  S
O721        H725   0.992       .  S
H722       C1468   1.084       .  S
C727        H737   1.084       .  S
C727        C732   1.402       .  A
C728        C733   1.483       .  S
C728        C729   1.407   1_565  A
C729        C730   1.398       .  A
C729        O734   1.373       .  S
C730        H735   1.083       .  S
C730        C731   1.404   1_545  A
C732        O736   1.372       .  S
C733        C742   1.402   1_565  A
O734        H750   0.992       .  S
O736        H747   0.992       .  S
C738        C739   1.399       .  A
C738        O743   1.372       .  S
C739        H744   1.083       .  S
C740        C741   1.414   1_565  A
C741        C742   1.399       .  A
C741        O745   1.372       .  S
C742        H746   1.084       .  S
O743        H748   0.992       .  S
O745        H749   0.992       .  S
C751        N752   1.361       .  A
C751        N756   1.359       .  A
C751        C856   1.481       .  S
N752       C1128   1.356       .  A
C753       N1127   1.356       .  A
C753        N754   1.355       .  A
C753        C815   1.459       .  S
N754        C755   1.356       .  A
C755       N1131   1.357       .  A
C755       C1180   1.455       .  S
N756       C1130   1.357       .  A
C757        N758   1.359       .  A
C757        N762   1.362       .  A
C757        C865   1.485       .  S
N758        C759   1.355       .  A
C759        N760   1.355       .  A
C759        C825   1.457       .  S
N760        C761   1.356       .  A
C761        N762   1.358       .  A
C761       C1186   1.460       .  S
C763        N764   1.361       .  A
C763        N768   1.359       .  A
C763        C841   1.483       .  S
N764        C765   1.358       .  A
C765        N766   1.356       .  A
C765        C783   1.461       .  S
N766        C767   1.356       .  A
C767        N768   1.356       .  A
C767        C790   1.456       .  S
C769        N770   1.359       .  A
C769        N774   1.361       .  A
C769        C832   1.484       .  S
N770        C771   1.356       .  A
C771        N772   1.355       .  A
C771        C795   1.456       .  S
N772        C773   1.355       .  A
C773        N774   1.357       .  A
C773        C775   1.457       .  S
C775        N793   1.347       .  A
C775        C812   1.453       .  S
N776        N793   1.325       .  A
N776        N798   1.320       .  A
C777        N802   1.343       .  A
C777        C815   1.457       .  S
C777        H822   1.081       .  S
H778        C819   1.081       .  S
C779        N803   1.342       .  A
C779        C783   1.456       .  S
Co780       N923   2.081       .  S
Co780       N913   2.076       .  S
Co780       N820   2.077       .  S
Co780       N796   2.079       .  S
Co780     Cl1199   2.454       .  S
N781        C819   1.342       .  A
N781       N1163   1.321   1_545  A
N781      Co1032   2.088   1_554  S
Co782       N906   2.088       .  S
Co782       N910   2.086       .  S
Co782       N802   2.092       .  S
Co782       N789   2.081       .  S
Co782      Cl824   2.453       .  S
C783        N821   1.348       .  A
N784       N1166   1.321   1_545  A
N784        N814   1.325       .  A
N784       Co817   2.085   1_554  S
N785        N803   1.321       .  A
N785        N821   1.325       .  A
N785      Co1032   2.086   1_554  S
N786       C1190   1.346       .  A
N786        N796   1.324       .  A
H787        C812   1.081       .  S
N788       N1156   1.321       .  A
N788        N809   1.323       .  A
N788      Co1030   2.076   1_554  S
N789        N807   1.321       .  A
N789        N794   1.324       .  A
C790        N794   1.346       .  A
C790        C818   1.454       .  S
N791        C806   1.340       .  A
N791       N1159   1.321       .  A
N791      Co1063   2.083   1_554  S
C792        N820   1.339       .  A
C792        C795   1.451       .  S
C792        H826   1.081       .  S
C795        N816   1.348       .  A
N796       N1177   1.321       .  A
N797        C823   1.340       .  A
N797       N1174   1.320       .  A
N797       Co813   2.081       .  S
N798        C812   1.340       .  A
N798      Co1030   2.081   1_554  S
N799       N1172   1.320   1_545  A
N799        N827   1.326       .  A
N799       Co942   2.089       .  S
H800        C823   1.081       .  S
N802       N1171   1.321   1_545  A
N804        N816   1.326       .  A
N804        N820   1.321       .  A
C805        N809   1.345       .  A
C805       C1130   1.455       .  S
C805       C1194   1.456       .  S
C806        C825   1.453       .  S
C806        H810   1.081       .  S
N807        C818   1.341       .  A
C811        N827   1.349   1_565  A
C811       C1136   1.460       .  S
C811       C1198   1.454       .  S
Co813       N916   2.083       .  S
N814       C1200   1.347   1_545  A
C815       N1161   1.346   1_545  A
Co817      N1049   2.089       .  S
C819       C1180   1.456       .  S
C823       C1186   1.454       .  S
Cl824     Co1155   2.454   1_545  S
C825       N1189   1.347       .  A
C828        H838   1.084       .  S
C828        C829   1.403       .  A
C828        C833   1.400       .  A
C829        C834   1.484       .  S
C829        C830   1.409       .  A
C830        C831   1.400       .  A
C831        H836   1.083       .  S
C831        C832   1.405       .  A
C832        C833   1.413       .  A
C833        O837   1.372       .  S
C834        C839   1.408       .  A
C834        C843   1.403       .  A
O835        H851   0.992       .  S
O837        H848   0.992       .  S
C839        C840   1.399       .  A
C839        O844   1.371       .  S
C840        H845   1.083       .  S
C840        C841   1.405       .  A
C841        C842   1.413       .  A
C842        C843   1.400       .  A
O844        H849   0.992       .  S
O846        H850   0.992   1_455  S
C852        H862   1.084       .  S
C852       C1228   1.404       .  A
C852        C857   1.402       .  A
C853        C858   1.483       .  S
C853       C1227   1.404       .  A
C853        C854   1.407       .  A
C854        C855   1.398       .  A
C854        O859   1.373       .  S
C855        H860   1.083       .  S
C855        C856   1.404       .  A
C856       C1232   1.412       .  A
C857       C1231   1.412       .  A
C857        O861   1.372       .  S
C858       C1238   1.409       .  A
C858        C867   1.402       .  A
O859        H875   0.992       .  S
O861        H872   0.992       .  S
C863       C1233   1.409       .  A
C863        C864   1.399       .  A
C863        O868   1.372       .  S
C864        H869   1.083       .  S
C864       C1240   1.406       .  A
C865       C1239   1.406       .  A
C865        C866   1.414       .  A
C866        C867   1.399       .  A
C866        O870   1.372       .  S
C867        H871   1.084       .  S
O868        H873   0.992       .  S
O870        H874   0.992       .  S
C876        N877   1.361       .  A
C876        N881   1.359       .  A
C876        C981   1.481       .  S
N877       C1253   1.356       .  A
C878       N1252   1.356       .  A
C878        N879   1.355       .  A
C878        C940   1.459       .  S
N879        C880   1.356       .  A
C880       N1256   1.357       .  A
C880       C1305   1.455       .  S
N881       C1255   1.357       .  A
C882        N883   1.359       .  A
C882        N887   1.362       .  A
C882        C990   1.485       .  S
N883        C884   1.355       .  A
C884        N885   1.355       .  A
C884        C950   1.457       .  S
N885        C886   1.356       .  A
C886        N887   1.358       .  A
C886       C1311   1.460       .  S
C888        N889   1.361       .  A
C888        N893   1.359       .  A
C888        C966   1.483       .  S
N889        C890   1.358       .  A
C890        N891   1.356       .  A
C890        C908   1.461       .  S
N891        C892   1.356       .  A
C892        N893   1.356       .  A
C892        C915   1.456       .  S
C894        N895   1.359       .  A
C894        N899   1.361       .  A
C894        C957   1.484       .  S
N895        C896   1.356       .  A
C896        N897   1.355       .  A
C896        C920   1.456       .  S
N897        C898   1.355       .  A
C898        N899   1.357       .  A
C898        C900   1.457       .  S
C900        N918   1.347       .  A
C900        C937   1.453       .  S
N901        N918   1.325       .  A
N901        N923   1.320       .  A
C902        N927   1.343       .  A
C902        C940   1.457       .  S
C902        H947   1.081       .  S
H903        C944   1.081       .  S
C904        N928   1.342       .  A
C904        C908   1.456       .  S
Co905      N1048   2.081       .  S
Co905      N1038   2.076       .  S
Co905       N945   2.077       .  S
Co905       N921   2.079       .  S
Co905     Cl1324   2.454       .  S
N906        C944   1.342       .  A
N906       N1288   1.321   1_545  A
Co907      N1031   2.088       .  S
Co907      N1035   2.086       .  S
Co907       N927   2.092       .  S
Co907       N914   2.081       .  S
Co907      Cl949   2.453       .  S
C908        N946   1.348       .  A
N909       N1291   1.321   1_545  A
N909        N939   1.325       .  A
N909       Co942   2.085       .  S
N910        N928   1.321       .  A
N910        N946   1.325       .  A
N911       C1315   1.346       .  A
N911        N921   1.324       .  A
H912        C937   1.081       .  S
N913       N1281   1.321       .  A
N913        N934   1.323       .  A
N914        N932   1.321       .  A
N914        N919   1.324       .  A
C915        N919   1.346       .  A
C915        C943   1.454       .  S
N916        C931   1.340       .  A
N916       N1284   1.321       .  A
C917        N945   1.339       .  A
C917        C920   1.451       .  S
C917        H951   1.081       .  S
C920        N941   1.348       .  A
N921       N1302   1.321       .  A
N922        C948   1.340       .  A
N922       N1299   1.320       .  A
N922       Co938   2.081       .  S
N923        C937   1.340       .  A
N924       N1297   1.320   1_545  A
N924        N952   1.326       .  A
N924      Co1067   2.089       .  S
H925        C948   1.081       .  S
N927       N1296   1.321   1_545  A
N929        N941   1.326       .  A
N929        N945   1.321       .  A
C930        N934   1.345       .  A
C930       C1255   1.455       .  S
C930       C1319   1.456       .  S
C931        C950   1.453       .  S
C931        H935   1.081       .  S
N932        C943   1.341       .  A
C936        N952   1.349   1_565  A
C936       C1261   1.460       .  S
C936       C1323   1.454       .  S
Co938      N1041   2.083       .  S
N939       C1325   1.347   1_545  A
C940       N1286   1.346   1_545  A
C944       C1305   1.456       .  S
C948       C1311   1.454       .  S
Cl949     Co1280   2.454   1_545  S
C950       N1314   1.347       .  A
C953        H963   1.084       .  S
C953        C954   1.403       .  A
C953        C958   1.400       .  A
C954        C959   1.484       .  S
C954        C955   1.409       .  A
C955        C956   1.400       .  A
C956        H961   1.083       .  S
C956        C957   1.405       .  A
C957        C958   1.413       .  A
C958        O962   1.372       .  S
C959        C964   1.408       .  A
C959        C968   1.403       .  A
O960        H976   0.992       .  S
O962        H973   0.992       .  S
C964        C965   1.399       .  A
C964        O969   1.371       .  S
C965        H970   1.083       .  S
C965        C966   1.405       .  A
C966        C967   1.413       .  A
C967        C968   1.400       .  A
O969        H974   0.992       .  S
O971        H975   0.992   1_455  S
C977        H987   1.084       .  S
C977       C1353   1.404       .  A
C977        C982   1.402       .  A
C978        C983   1.483       .  S
C978       C1352   1.404       .  A
C978        C979   1.407       .  A
C979        C980   1.398       .  A
C979        O984   1.373       .  S
C980        H985   1.083       .  S
C980        C981   1.404       .  A
C981       C1357   1.412       .  A
C982       C1356   1.412       .  A
C982        O986   1.372       .  S
C983       C1363   1.409       .  A
C983        C992   1.402       .  A
O984       H1000   0.992       .  S
O986        H997   0.992       .  S
C988       C1358   1.409       .  A
C988        C989   1.399       .  A
C988        O993   1.372       .  S
C989        H994   1.083       .  S
C989       C1365   1.406       .  A
C990       C1364   1.406       .  A
C990        C991   1.414       .  A
C991        C992   1.399       .  A
C991        O995   1.372       .  S
C992        H996   1.084       .  S
O993        H998   0.992       .  S
O995        H999   0.992       .  S
C1001      N1002   1.361       .  A
C1001      N1006   1.359       .  A
C1001      C1106   1.481       .  S
N1002      C1378   1.356       .  A
C1003      N1377   1.356       .  A
C1003      N1004   1.355       .  A
C1003      C1065   1.459       .  S
N1004      C1005   1.356       .  A
C1005      N1381   1.357       .  A
C1005      C1430   1.455       .  S
N1006      C1380   1.357       .  A
C1007      N1008   1.359       .  A
C1007      N1012   1.362       .  A
C1007      C1115   1.485       .  S
N1008      C1009   1.355       .  A
C1009      N1010   1.355       .  A
C1009      C1075   1.457       .  S
N1010      C1011   1.356       .  A
C1011      N1012   1.358       .  A
C1011      C1436   1.460       .  S
C1013      N1014   1.361       .  A
C1013      N1018   1.359       .  A
C1013      C1091   1.483       .  S
N1014      C1015   1.358       .  A
C1015      N1016   1.356       .  A
C1015      C1033   1.461       .  S
N1016      C1017   1.356       .  A
C1017      N1018   1.356       .  A
C1017      C1040   1.456       .  S
C1019      N1020   1.359       .  A
C1019      N1024   1.361       .  A
C1019      C1082   1.484       .  S
N1020      C1021   1.356       .  A
C1021      N1022   1.355       .  A
C1021      C1045   1.456       .  S
N1022      C1023   1.355       .  A
C1023      N1024   1.357       .  A
C1023      C1025   1.457       .  S
C1025      N1043   1.347       .  A
C1025      C1062   1.453       .  S
N1026      N1043   1.325       .  A
N1026      N1048   1.320       .  A
C1027      N1052   1.343       .  A
C1027      C1065   1.457       .  S
C1027      H1072   1.081       .  S
H1028      C1069   1.081       .  S
C1029      N1053   1.342       .  A
C1029      C1033   1.456       .  S
Co1030     N1070   2.077       .  S
Co1030     N1046   2.079       .  S
Co1030    Cl1449   2.454       .  S
N1031      C1069   1.342       .  A
N1031      N1413   1.321   1_545  A
Co1032     N1052   2.092       .  S
Co1032     N1039   2.081       .  S
Co1032    Cl1074   2.453       .  S
C1033      N1071   1.348       .  A
N1034      N1416   1.321   1_545  A
N1034      N1064   1.325       .  A
N1034     Co1067   2.085       .  S
N1035      N1053   1.321       .  A
N1035      N1071   1.325       .  A
N1036      C1440   1.346       .  A
N1036      N1046   1.324       .  A
H1037      C1062   1.081       .  S
N1038      N1406   1.321       .  A
N1038      N1059   1.323       .  A
N1039      N1057   1.321       .  A
N1039      N1044   1.324       .  A
C1040      N1044   1.346       .  A
C1040      C1068   1.454       .  S
N1041      C1056   1.340       .  A
N1041      N1409   1.321       .  A
C1042      N1070   1.339       .  A
C1042      C1045   1.451       .  S
C1042      H1076   1.081       .  S
C1045      N1066   1.348       .  A
N1046      N1427   1.321       .  A
N1047      C1073   1.340       .  A
N1047      N1424   1.320       .  A
N1047     Co1063   2.081       .  S
N1048      C1062   1.340       .  A
N1049      N1422   1.320   1_545  A
N1049      N1077   1.326       .  A
H1050      C1073   1.081       .  S
N1052      N1421   1.321   1_545  A
N1054      N1066   1.326       .  A
N1054      N1070   1.321       .  A
C1055      N1059   1.345       .  A
C1055      C1380   1.455       .  S
C1055      C1444   1.456       .  S
C1056      C1075   1.453       .  S
C1056      H1060   1.081       .  S
N1057      C1068   1.341       .  A
C1061      N1077   1.349   1_565  A
C1061      C1386   1.460       .  S
C1061      C1448   1.454       .  S
N1064      C1450   1.347   1_545  A
C1065      N1411   1.346   1_545  A
C1069      C1430   1.456       .  S
C1073      C1436   1.454       .  S
Cl1074    Co1405   2.454   1_545  S
C1075      N1439   1.347       .  A
C1078      H1088   1.084       .  S
C1078      C1079   1.403       .  A
C1078      C1083   1.400       .  A
C1079      C1084   1.484       .  S
C1079      C1080   1.409       .  A
C1080      C1081   1.400       .  A
C1081      H1086   1.083       .  S
C1081      C1082   1.405       .  A
C1082      C1083   1.413       .  A
C1083      O1087   1.372       .  S
C1084      C1089   1.408       .  A
C1084      C1093   1.403       .  A
O1085      H1101   0.992       .  S
O1087      H1098   0.992       .  S
C1089      C1090   1.399       .  A
C1089      O1094   1.371       .  S
C1090      H1095   1.083       .  S
C1090      C1091   1.405       .  A
C1091      C1092   1.413       .  A
C1092      C1093   1.400       .  A
O1094      H1099   0.992       .  S
O1096      H1100   0.992   1_455  S
C1102      H1112   1.084       .  S
C1102      C1478   1.404       .  A
C1102      C1107   1.402       .  A
C1103      C1108   1.483       .  S
C1103      C1477   1.404       .  A
C1103      C1104   1.407       .  A
C1104      C1105   1.398       .  A
C1104      O1109   1.373       .  S
C1105      H1110   1.083       .  S
C1105      C1106   1.404       .  A
C1106      C1482   1.412       .  A
C1107      C1481   1.412       .  A
C1107      O1111   1.372       .  S
C1108      C1488   1.409       .  A
C1108      C1117   1.402       .  A
O1109      H1125   0.992       .  S
O1111      H1122   0.992       .  S
C1113      C1483   1.409       .  A
C1113      C1114   1.399       .  A
C1113      O1118   1.372       .  S
C1114      H1119   1.083       .  S
C1114      C1490   1.406       .  A
C1115      C1489   1.406       .  A
C1115      C1116   1.414       .  A
C1116      C1117   1.399       .  A
C1116      O1120   1.372       .  S
C1117      H1121   1.084       .  S
O1118      H1123   0.992       .  S
O1120      H1124   0.992       .  S
C1126      N1127   1.361   1_565  A
C1126      N1131   1.359   1_565  A
C1126      C1231   1.481       .  S
C1128      N1129   1.355       .  A
C1128      C1190   1.459       .  S
N1129      C1130   1.356       .  A
C1132      N1133   1.359       .  A
C1132      N1137   1.362       .  A
C1132      C1240   1.485       .  S
N1133      C1134   1.355       .  A
C1134      N1135   1.355       .  A
C1134      C1200   1.457       .  S
N1135      C1136   1.356       .  A
C1136      N1137   1.358       .  A
C1138      N1139   1.361       .  A
C1138      N1143   1.359       .  A
C1138      C1216   1.483       .  S
N1139      C1140   1.358       .  A
C1140      N1141   1.356       .  A
C1140      C1158   1.461       .  S
N1141      C1142   1.356       .  A
C1142      N1143   1.356       .  A
C1142      C1165   1.456       .  S
C1144      N1145   1.359       .  A
C1144      N1149   1.361       .  A
C1144      C1207   1.484       .  S
N1145      C1146   1.356       .  A
C1146      N1147   1.355       .  A
C1146      C1170   1.456       .  S
N1147      C1148   1.355       .  A
C1148      N1149   1.357       .  A
C1148      C1150   1.457       .  S
C1150      N1168   1.347       .  A
C1150      C1187   1.453       .  S
N1151      N1168   1.325       .  A
N1151      N1173   1.320       .  A
C1152      N1177   1.343       .  A
C1152      C1190   1.457       .  S
C1152      H1197   1.081       .  S
H1153      C1194   1.081       .  S
C1154      N1178   1.342       .  A
C1154      C1158   1.456       .  S
Co1155     N1298   2.081       .  S
Co1155     N1288   2.076       .  S
Co1155     N1195   2.077       .  S
Co1155     N1171   2.079       .  S
N1156      C1194   1.342       .  A
N1156     Co1407   2.088   1_554  S
Co1157     N1281   2.088       .  S
Co1157     N1285   2.086       .  S
Co1157     N1177   2.092       .  S
Co1157     N1164   2.081       .  S
Co1157    Cl1199   2.453       .  S
C1158      N1196   1.348       .  A
N1159      N1189   1.325       .  A
N1159     Co1192   2.085   1_554  S
N1160      N1178   1.321       .  A
N1160      N1196   1.325       .  A
N1160     Co1407   2.086   1_554  S
N1161      N1171   1.324       .  A
H1162      C1187   1.081       .  S
N1163      N1184   1.323       .  A
N1163     Co1405   2.076   1_554  S
N1164      N1182   1.321       .  A
N1164      N1169   1.324       .  A
C1165      N1169   1.346       .  A
C1165      C1193   1.454       .  S
N1166      C1181   1.340       .  A
N1166     Co1438   2.083   1_554  S
C1167      N1195   1.339       .  A
C1167      C1170   1.451       .  S
C1167      H1201   1.081       .  S
C1170      N1191   1.348       .  A
N1172      C1198   1.340       .  A
N1172     Co1188   2.081       .  S
N1173      C1187   1.340       .  A
N1173     Co1405   2.081   1_554  S
N1174      N1202   1.326       .  A
N1174     Co1317   2.089       .  S
H1175      C1198   1.081       .  S
N1179      N1191   1.326       .  A
N1179      N1195   1.321       .  A
C1180      N1184   1.345   1_545  A
C1181      C1200   1.453       .  S
C1181      H1185   1.081       .  S
N1182      C1193   1.341       .  A
C1186      N1202   1.349       .  A
Co1188     N1291   2.083       .  S
Co1192     N1424   2.089       .  S
C1203      H1213   1.084       .  S
C1203      C1204   1.403       .  A
C1203      C1208   1.400       .  A
C1204      C1209   1.484       .  S
C1204      C1205   1.409       .  A
C1205      C1206   1.400       .  A
C1206      H1211   1.083       .  S
C1206      C1207   1.405       .  A
C1207      C1208   1.413       .  A
C1208      O1212   1.372       .  S
C1209      C1214   1.408       .  A
C1209      C1218   1.403       .  A
O1210      H1226   0.992       .  S
O1212      H1223   0.992       .  S
C1214      C1215   1.399       .  A
C1214      O1219   1.371       .  S
C1215      H1220   1.083       .  S
C1215      C1216   1.405       .  A
C1216      C1217   1.413       .  A
C1217      C1218   1.400       .  A
O1219      H1224   0.992       .  S
O1221      H1225   0.992   1_455  S
C1227      H1237   1.084       .  S
C1227      C1232   1.402       .  A
C1228      C1233   1.483       .  S
C1228      C1229   1.407   1_565  A
C1229      C1230   1.398       .  A
C1229      O1234   1.373       .  S
C1230      H1235   1.083       .  S
C1230      C1231   1.404   1_545  A
C1232      O1236   1.372       .  S
C1233      C1242   1.402   1_565  A
O1234      H1250   0.992       .  S
O1236      H1247   0.992       .  S
C1238      C1239   1.399       .  A
C1238      O1243   1.372       .  S
C1239      H1244   1.083       .  S
C1240      C1241   1.414   1_565  A
C1241      C1242   1.399       .  A
C1241      O1245   1.372       .  S
C1242      H1246   1.084       .  S
O1243      H1248   0.992       .  S
O1245      H1249   0.992       .  S
C1251      N1252   1.361   1_565  A
C1251      N1256   1.359   1_565  A
C1251      C1356   1.481       .  S
C1253      N1254   1.355       .  A
C1253      C1315   1.459       .  S
N1254      C1255   1.356       .  A
C1257      N1258   1.359       .  A
C1257      N1262   1.362       .  A
C1257      C1365   1.485       .  S
N1258      C1259   1.355       .  A
C1259      N1260   1.355       .  A
C1259      C1325   1.457       .  S
N1260      C1261   1.356       .  A
C1261      N1262   1.358       .  A
C1263      N1264   1.361       .  A
C1263      N1268   1.359       .  A
C1263      C1341   1.483       .  S
N1264      C1265   1.358       .  A
C1265      N1266   1.356       .  A
C1265      C1283   1.461       .  S
N1266      C1267   1.356       .  A
C1267      N1268   1.356       .  A
C1267      C1290   1.456       .  S
C1269      N1270   1.359       .  A
C1269      N1274   1.361       .  A
C1269      C1332   1.484       .  S
N1270      C1271   1.356       .  A
C1271      N1272   1.355       .  A
C1271      C1295   1.456       .  S
N1272      C1273   1.355       .  A
C1273      N1274   1.357       .  A
C1273      C1275   1.457       .  S
C1275      N1293   1.347       .  A
C1275      C1312   1.453       .  S
N1276      N1293   1.325       .  A
N1276      N1298   1.320       .  A
C1277      N1302   1.343       .  A
C1277      C1315   1.457       .  S
C1277      H1322   1.081       .  S
H1278      C1319   1.081       .  S
C1279      N1303   1.342       .  A
C1279      C1283   1.456       .  S
Co1280     N1423   2.081       .  S
Co1280     N1413   2.076       .  S
Co1280     N1320   2.077       .  S
Co1280     N1296   2.079       .  S
N1281      C1319   1.342       .  A
Co1282     N1406   2.088       .  S
Co1282     N1410   2.086       .  S
Co1282     N1302   2.092       .  S
Co1282     N1289   2.081       .  S
Co1282    Cl1324   2.453       .  S
C1283      N1321   1.348       .  A
N1284      N1314   1.325       .  A
N1284     Co1317   2.085       .  S
N1285      N1303   1.321       .  A
N1285      N1321   1.325       .  A
N1286      N1296   1.324       .  A
H1287      C1312   1.081       .  S
N1288      N1309   1.323       .  A
N1289      N1307   1.321       .  A
N1289      N1294   1.324       .  A
C1290      N1294   1.346       .  A
C1290      C1318   1.454       .  S
N1291      C1306   1.340       .  A
C1292      N1320   1.339       .  A
C1292      C1295   1.451       .  S
C1292      H1326   1.081       .  S
C1295      N1316   1.348       .  A
N1297      C1323   1.340       .  A
N1297     Co1313   2.081       .  S
N1298      C1312   1.340       .  A
N1299      N1327   1.326       .  A
N1299     Co1442   2.089       .  S
H1300      C1323   1.081       .  S
N1304      N1316   1.326       .  A
N1304      N1320   1.321       .  A
C1305      N1309   1.345   1_545  A
C1306      C1325   1.453       .  S
C1306      H1310   1.081       .  S
N1307      C1318   1.341       .  A
C1311      N1327   1.349       .  A
Co1313     N1416   2.083       .  S
C1328      H1338   1.084       .  S
C1328      C1329   1.403       .  A
C1328      C1333   1.400       .  A
C1329      C1334   1.484       .  S
C1329      C1330   1.409       .  A
C1330      C1331   1.400       .  A
C1331      H1336   1.083       .  S
C1331      C1332   1.405       .  A
C1332      C1333   1.413       .  A
C1333      O1337   1.372       .  S
C1334      C1339   1.408       .  A
C1334      C1343   1.403       .  A
O1335      H1351   0.992       .  S
O1337      H1348   0.992       .  S
C1339      C1340   1.399       .  A
C1339      O1344   1.371       .  S
C1340      H1345   1.083       .  S
C1340      C1341   1.405       .  A
C1341      C1342   1.413       .  A
C1342      C1343   1.400       .  A
O1344      H1349   0.992       .  S
O1346      H1350   0.992   1_455  S
C1352      H1362   1.084       .  S
C1352      C1357   1.402       .  A
C1353      C1358   1.483       .  S
C1353      C1354   1.407   1_565  A
C1354      C1355   1.398       .  A
C1354      O1359   1.373       .  S
C1355      H1360   1.083       .  S
C1355      C1356   1.404   1_545  A
C1357      O1361   1.372       .  S
C1358      C1367   1.402   1_565  A
O1359      H1375   0.992       .  S
O1361      H1372   0.992       .  S
C1363      C1364   1.399       .  A
C1363      O1368   1.372       .  S
C1364      H1369   1.083       .  S
C1365      C1366   1.414   1_565  A
C1366      C1367   1.399       .  A
C1366      O1370   1.372       .  S
C1367      H1371   1.084       .  S
O1368      H1373   0.992       .  S
O1370      H1374   0.992       .  S
C1376      N1377   1.361   1_565  A
C1376      N1381   1.359   1_565  A
C1376      C1481   1.481       .  S
C1378      N1379   1.355       .  A
C1378      C1440   1.459       .  S
N1379      C1380   1.356       .  A
C1382      N1383   1.359       .  A
C1382      N1387   1.362       .  A
C1382      C1490   1.485       .  S
N1383      C1384   1.355       .  A
C1384      N1385   1.355       .  A
C1384      C1450   1.457       .  S
N1385      C1386   1.356       .  A
C1386      N1387   1.358       .  A
C1388      N1389   1.361       .  A
C1388      N1393   1.359       .  A
C1388      C1466   1.483       .  S
N1389      C1390   1.358       .  A
C1390      N1391   1.356       .  A
C1390      C1408   1.461       .  S
N1391      C1392   1.356       .  A
C1392      N1393   1.356       .  A
C1392      C1415   1.456       .  S
C1394      N1395   1.359       .  A
C1394      N1399   1.361       .  A
C1394      C1457   1.484       .  S
N1395      C1396   1.356       .  A
C1396      N1397   1.355       .  A
C1396      C1420   1.456       .  S
N1397      C1398   1.355       .  A
C1398      N1399   1.357       .  A
C1398      C1400   1.457       .  S
C1400      N1418   1.347       .  A
C1400      C1437   1.453       .  S
N1401      N1418   1.325       .  A
N1401      N1423   1.320       .  A
C1402      N1427   1.343       .  A
C1402      C1440   1.457       .  S
C1402      H1447   1.081       .  S
H1403      C1444   1.081       .  S
C1404      N1428   1.342       .  A
C1404      C1408   1.456       .  S
Co1405     N1445   2.077       .  S
Co1405     N1421   2.079       .  S
N1406      C1444   1.342       .  A
Co1407     N1427   2.092       .  S
Co1407     N1414   2.081       .  S
Co1407    Cl1449   2.453       .  S
C1408      N1446   1.348       .  A
N1409      N1439   1.325       .  A
N1409     Co1442   2.085       .  S
N1410      N1428   1.321       .  A
N1410      N1446   1.325       .  A
N1411      N1421   1.324       .  A
H1412      C1437   1.081       .  S
N1413      N1434   1.323       .  A
N1414      N1432   1.321       .  A
N1414      N1419   1.324       .  A
C1415      N1419   1.346       .  A
C1415      C1443   1.454       .  S
N1416      C1431   1.340       .  A
C1417      N1445   1.339       .  A
C1417      C1420   1.451       .  S
C1417      H1451   1.081       .  S
C1420      N1441   1.348       .  A
N1422      C1448   1.340       .  A
N1422     Co1438   2.081       .  S
N1423      C1437   1.340       .  A
N1424      N1452   1.326       .  A
H1425      C1448   1.081       .  S
N1429      N1441   1.326       .  A
N1429      N1445   1.321       .  A
C1430      N1434   1.345   1_545  A
C1431      C1450   1.453       .  S
C1431      H1435   1.081       .  S
N1432      C1443   1.341       .  A
C1436      N1452   1.349       .  A
C1453      H1463   1.084       .  S
C1453      C1454   1.403       .  A
C1453      C1458   1.400       .  A
C1454      C1459   1.484       .  S
C1454      C1455   1.409       .  A
C1455      C1456   1.400       .  A
C1456      H1461   1.083       .  S
C1456      C1457   1.405       .  A
C1457      C1458   1.413       .  A
C1458      O1462   1.372       .  S
C1459      C1464   1.408       .  A
C1459      C1468   1.403       .  A
O1460      H1476   0.992       .  S
O1462      H1473   0.992       .  S
C1464      C1465   1.399       .  A
C1464      O1469   1.371       .  S
C1465      H1470   1.083       .  S
C1465      C1466   1.405       .  A
C1466      C1467   1.413       .  A
C1467      C1468   1.400       .  A
O1469      H1474   0.992       .  S
O1471      H1475   0.992   1_455  S
C1477      H1487   1.084       .  S
C1477      C1482   1.402       .  A
C1478      C1483   1.483       .  S
C1478      C1479   1.407   1_565  A
C1479      C1480   1.398       .  A
C1479      O1484   1.373       .  S
C1480      H1485   1.083       .  S
C1480      C1481   1.404   1_545  A
C1482      O1486   1.372       .  S
C1483      C1492   1.402   1_565  A
O1484      H1500   0.992       .  S
O1486      H1497   0.992       .  S
C1488      C1489   1.399       .  A
C1488      O1493   1.372       .  S
C1489      H1494   1.083       .  S
C1490      C1491   1.414   1_565  A
C1491      C1492   1.399       .  A
C1491      O1495   1.372       .  S
C1492      H1496   1.084       .  S
O1493      H1498   0.992       .  S
O1495      H1499   0.992       .  S
