geometry optimzed in LAMMPS
_audit_creation_date              2020-11-30 
_audit_creation_method            'lammps2cif' 
_symmetry_space_group_name_H-M    'P1' 
_symmetry_Int_Tables_number       1 
_symmetry_cell_setting            triclinic 
loop_ 
_symmetry_equiv_pos_as_xyz 
  x,y,z 
_cell_length_a                    32.07818874 
_cell_length_b                    32.079748469289356 
_cell_length_c                    29.705497216207032 
_cell_angle_alpha                 89.9831476293327 
_cell_angle_beta                  90.01679244572645 
_cell_angle_gamma                 120.05694257044404 
loop_ 
_atom_site_label 
_atom_site_type_symbol 
_atom_site_fract_x 
_atom_site_fract_y 
_atom_site_fract_z 
_atom_site_charge 
C1          C  0.21707675  0.20760071  0.15916722     0.82300
N2          N  0.21533942  0.20592064  0.11335794    -0.76000
C3          C  0.25139814  0.24201115  0.08909036     0.84700
N4          N  0.28869834  0.27929243  0.11079339    -0.76000
C5          C  0.29035124  0.28088933  0.15622336     0.84800
N6          N  0.25456161  0.24506625  0.18042138    -0.77700
C7          C  0.21696451  0.20771093  0.46957339     0.82300
N8          N  0.21528101  0.20597809  0.01538274    -0.76000
C9          C  0.25136093  0.24204803  0.03964974     0.84700
N10         N  0.28863571  0.27935427  0.01794613    -0.76000
C11         C  0.29023592  0.28100295  0.47251600     0.84800
N12         N  0.25442324  0.24520217  0.44831868    -0.77700
C13         C  0.24761013  0.47319335  0.15923129     0.82300
N14         N  0.24936769  0.47329009  0.11341769    -0.76000
C15         C  0.21341546  0.47346450  0.08912356     0.84700
N16         N  0.17617955  0.47352850  0.11081458    -0.76000
C17         C  0.17448767  0.47342215  0.15625347     0.84800
N18         N  0.21018250  0.47324701  0.18046605    -0.77700
C19         C  0.24758416  0.47298122  0.46959830     0.82300
N20         N  0.24936564  0.47319495  0.01541727    -0.76000
C21         C  0.21340196  0.47338842  0.03965898     0.84700
N22         N  0.17614027  0.47336288  0.01791421    -0.76000
C23         C  0.17442132  0.47313678  0.47247646     0.84800
N24         N  0.21012282  0.47294314  0.44831255    -0.77700
C25         C  0.48237738  0.23822614  0.15914213     0.82300
N26         N  0.48234862  0.20077021  0.18042657    -0.76000
C27         C  0.48256787  0.16508351  0.15626183     0.84700
N28         N  0.48280878  0.16681139  0.11082374    -0.75000
C29         C  0.48282446  0.20406679  0.08907933     0.84800
N30         N  0.48260545  0.24001560  0.11332241    -0.77700
C31         C  0.48258346  0.23824825  0.46950239     0.82300
N32         N  0.48269848  0.24001617  0.01531669    -0.76000
C33         C  0.48289765  0.20407876  0.03961275     0.84700
N34         N  0.48296700  0.16684655  0.01792271    -0.76000
C35         C  0.48284168  0.16514332  0.47248365     0.84800
N36         N  0.48264186  0.20082351  0.44826968    -0.77700
O37         O  0.37569411  0.01319958  0.26381484    -0.86100
C38         C  0.12116935  0.11178328  0.38024961     1.13900
O39         O  0.43205029  0.47289079  0.31438189    -1.33900
O40         O  0.08881834  0.11976892  0.26370671    -0.87600
O41         O  0.33531176  0.43248539  0.26378281    -0.88300
O42         O  0.43251211  0.42319726  0.21990302    -0.77100
O43         O  0.48226989  0.06784133  0.27212409    -0.99200
C44         C  0.06937745  0.47301218  0.23206059     1.24000
O45         O  0.48224944  0.42267995  0.31435559    -1.34100
Mn46       Mn  0.48230276  0.47291079  0.36296673     1.82100
O47         O  0.03205082  0.47299678  0.21988450    -0.76200
O48         O  0.12920132  0.07949841  0.26381141    -0.85500
C49         C  0.06936607  0.47288327  0.39664975     1.15100
C50         C  0.12116996  0.11178546  0.24849156     1.09800
O51         O  0.43255501  0.42315198  0.40883449    -0.77100
O52         O  0.03252231  0.02314855  0.31436939    -1.30800
O53         O  0.38731799  0.37793035  0.35662945    -0.96300
C54         C  0.48214605  0.33400755  0.24841092     1.08500
Mn55       Mn  0.10076462  0.02698395  0.31439018     1.48600
O56         O  0.44180085  0.32598545  0.26368992    -0.85500
Mn57       Mn  0.36375625  0.40843193  0.31439001     1.49600
O58         O  0.37574516  0.01316913  0.36506113    -0.89400
C59         C  0.48227216  0.06000835  0.23208783     1.21700
C60         C  0.34338415  0.47279702  0.38032567     1.13800
Mn61       Mn  0.48227824  0.47293658  0.26577118     1.81000
O62         O  0.07720161  0.47288400  0.35661373    -0.94500
Mn63       Mn  0.42822072  0.03729113  0.31441142     1.49300
C64         C  0.34332953  0.47284462  0.24853841     1.10300
Mn65       Mn  0.04664708  0.41883969  0.31432530     1.49900
C66         C  0.48219301  0.33395063  0.38019695     1.13200
O67         O  0.38728844  0.37796134  0.27210774    -1.00300
O68         O  0.12914920  0.07942993  0.36503528    -0.90000
C69         C  0.39517389  0.38585800  0.23207809     1.24500
O70         O  0.07721925  0.47295404  0.27209505    -1.00700
O71         O  0.08888439  0.11981865  0.36492850    -0.88100
O72         O  0.02255036  0.36631228  0.36491975    -0.87700
O73         O  0.33535642  0.43245302  0.36504551    -0.87700
Mn74       Mn  0.03636928  0.09139281  0.31434952     1.47900
O75         O  0.03207367  0.47291095  0.40884074    -0.76200
C76         C  0.39521325  0.38581639  0.39665925     1.17500
O77         O  0.48228997  0.02271254  0.21989706    -0.75000
O78         O  0.48237238  0.02268716  0.40885388    -0.74600
Mn79       Mn  0.41778446  0.35439203  0.31434699     1.51100
O80         O  0.02252066  0.36636673  0.26367494    -0.86900
O81         O  0.48233712  0.06785717  0.35664350    -0.94400
O82         O  0.44183259  0.32594017  0.36495545    -0.89500
C83         C  0.48239578  0.06001637  0.39667815     1.15300
C84         C  0.48274500  0.12555670  0.45000960    -0.11200
C85         C  0.48258069  0.09375441  0.42833568    -0.12800
C86         C  0.48235052  0.27550179  0.44276443    -0.11200
C87         C  0.48221524  0.30363214  0.41583773    -0.12800
C88         C  0.48236050  0.09372309  0.20044723    -0.11200
C89         C  0.48246812  0.12550850  0.17877787    -0.12800
C90         C  0.48212224  0.30368882  0.21275386    -0.11200
C91         C  0.48219564  0.27552700  0.18583722    -0.12800
C92         C  0.31306923  0.47277199  0.41598625    -0.11200
C93         C  0.28490081  0.47282869  0.44290516    -0.12800
C94         C  0.10307095  0.47295110  0.42829006    -0.11200
C95         C  0.13484917  0.47304328  0.44995979    -0.12800
C96         C  0.31301496  0.47286594  0.21289435    -0.11200
C97         C  0.28487835  0.47298655  0.18596636    -0.12800
C98         C  0.13490451  0.47333276  0.17872876    -0.11200
C99         C  0.10310821  0.47318140  0.20040328    -0.12800
C100        C  0.32979926  0.32052631  0.45003417    -0.11200
C101        C  0.36154650  0.35220812  0.42832769    -0.12800
C102        C  0.17960211  0.17029915  0.44286058    -0.11200
C103        C  0.15144483  0.14208446  0.41591753    -0.12800
C104        C  0.36155915  0.35219830  0.20040979    -0.11200
C105        C  0.32987355  0.32045407  0.17870428    -0.12800
C106        C  0.15147207  0.14206045  0.21282393    -0.11200
C107        C  0.17967867  0.17022537  0.18588063    -0.12800
C108        C  0.21707683  0.20760071  0.65916717     0.82300
N109        N  0.21533953  0.20592068  0.61335785    -0.76000
C110        C  0.25139822  0.24201117  0.58909034     0.84700
N111        N  0.28869842  0.27929250  0.61079332    -0.76000
C112        C  0.29035124  0.28088942  0.65622334     0.84800
N113        N  0.25456166  0.24506630  0.68042130    -0.77700
C114        C  0.21696455  0.20771085  0.96957343     0.82300
N115        N  0.21528108  0.20597810  0.51538273    -0.76000
C116        C  0.25136096  0.24204806  0.53964969     0.84700
N117        N  0.28863569  0.27935438  0.51794612    -0.76000
C118        C  0.29023595  0.28100288  0.97251602     0.84800
N119        N  0.25442328  0.24520203  0.94831869    -0.77700
C120        C  0.24761010  0.47319334  0.65923135     0.82300
N121        N  0.24936755  0.47328984  0.61341772    -0.76000
C122        C  0.21341535  0.47346427  0.58912363     0.84700
N123        N  0.17617953  0.47352849  0.61081459    -0.76000
C124        C  0.17448768  0.47342222  0.65625350     0.84800
N125        N  0.21018255  0.47324709  0.68046607    -0.77700
C126        C  0.24758402  0.47298108  0.96959821     0.82300
N127        N  0.24936572  0.47319496  0.51541739    -0.76000
C128        C  0.21340188  0.47338826  0.53965901     0.84700
N129        N  0.17614031  0.47336283  0.51791425    -0.76000
C130        C  0.17442126  0.47313681  0.97247645     0.84800
N131        N  0.21012267  0.47294313  0.94831246    -0.77700
C132        C  0.48237741  0.23822617  0.65914218     0.82300
N133        N  0.48234844  0.20077013  0.68042661    -0.76000
C134        C  0.48256777  0.16508349  0.65626183     0.84700
N135        N  0.48280866  0.16681138  0.61082378    -0.75000
C136        C  0.48282438  0.20406681  0.58907936     0.84800
N137        N  0.48260555  0.24001569  0.61332249    -0.77700
C138        C  0.48258358  0.23824833  0.96950232     0.82300
N139        N  0.48269822  0.24001605  0.51531672    -0.76000
C140        C  0.48289763  0.20407878  0.53961286     0.84700
N141        N  0.48296707  0.16684659  0.51792282    -0.76000
C142        C  0.48284169  0.16514335  0.97248349     0.84800
N143        N  0.48264179  0.20082353  0.94826959    -0.77700
O144        O  0.37569417  0.01319960  0.76381489    -0.86100
C145        C  0.12116935  0.11178330  0.88024960     1.13900
O146        O  0.43205025  0.47289081  0.81438187    -1.33900
O147        O  0.08881843  0.11976894  0.76370670    -0.87600
O148        O  0.33531181  0.43248535  0.76378286    -0.88300
O149        O  0.43251219  0.42319726  0.71990305    -0.77100
O150        O  0.48226988  0.06784113  0.77212406    -0.99200
C151        C  0.06937749  0.47301221  0.73206062     1.24000
O152        O  0.48224942  0.42267991  0.81435560    -1.34100
Mn153      Mn  0.48230265  0.47291069  0.86296669     1.82100
O154        O  0.03205088  0.47299684  0.71988454    -0.76200
O155        O  0.12920138  0.07949837  0.76381123    -0.85500
C156        C  0.06936599  0.47288328  0.89664978     1.15100
C157        C  0.12117005  0.11178548  0.74849148     1.09800
O158        O  0.43255483  0.42315189  0.90883445    -0.77100
O159        O  0.03252242  0.02314864  0.81436933    -1.30800
O160        O  0.38731788  0.37793025  0.85662943    -0.96300
C161        C  0.48214612  0.33400752  0.74841103     1.08500
Mn162      Mn  0.10076474  0.02698400  0.81439010     1.48600
O163        O  0.44180091  0.32598546  0.76369000    -0.85500
Mn164      Mn  0.36375627  0.40843193  0.81439005     1.49600
O165        O  0.37574523  0.01316905  0.86506118    -0.89400
C166        C  0.48227216  0.06000830  0.73208775     1.21700
C167        C  0.34338421  0.47279699  0.88032577     1.13800
Mn168      Mn  0.48227827  0.47293661  0.76577119     1.81000
O169        O  0.07720166  0.47288402  0.85661378    -0.94500
Mn170      Mn  0.42822072  0.03729098  0.81441142     1.49300
C171        C  0.34332957  0.47284458  0.74853846     1.10300
Mn172      Mn  0.04664717  0.41883971  0.81432535     1.49900
C173        C  0.48219299  0.33395069  0.88019703     1.13200
O174        O  0.38728851  0.37796140  0.77210779    -1.00300
O175        O  0.12914931  0.07943002  0.86503525    -0.90000
C176        C  0.39517397  0.38585800  0.73207814     1.24500
O177        O  0.07721929  0.47295403  0.77209508    -1.00700
O178        O  0.08888439  0.11981867  0.86492844    -0.88100
O179        O  0.02255049  0.36631234  0.86491981    -0.87700
O180        O  0.33535645  0.43245297  0.86504560    -0.87700
Mn181      Mn  0.03636923  0.09139281  0.81434943     1.47900
O182        O  0.03207357  0.47291094  0.90884070    -0.76200
C183        C  0.39521310  0.38581627  0.89665920     1.17500
O184        O  0.48229010  0.02271259  0.71989689    -0.75000
O185        O  0.48237217  0.02268701  0.90885388    -0.74600
Mn186      Mn  0.41778442  0.35439203  0.81434702     1.51100
O187        O  0.02252068  0.36636670  0.76367500    -0.86900
O188        O  0.48233708  0.06785700  0.85664346    -0.94400
O189        O  0.44183259  0.32594026  0.86495549    -0.89500
C190        C  0.48239565  0.06001623  0.89667809     1.15300
C191        C  0.48274506  0.12555674  0.95000944    -0.11200
C192        C  0.48258063  0.09375432  0.92833561    -0.12800
C193        C  0.48235058  0.27550188  0.94276445    -0.11200
C194        C  0.48221517  0.30363222  0.91583781    -0.12800
C195        C  0.48236035  0.09372310  0.70044729    -0.11200
C196        C  0.48246796  0.12550847  0.67877788    -0.12800
C197        C  0.48212232  0.30368882  0.71275396    -0.11200
C198        C  0.48219575  0.27552703  0.68583731    -0.12800
C199        C  0.31306927  0.47277201  0.91598628    -0.11200
C200        C  0.28490070  0.47282868  0.94290503    -0.12800
C201        C  0.10307081  0.47295116  0.92829020    -0.11200
C202        C  0.13484904  0.47304334  0.94995984    -0.12800
C203        C  0.31301502  0.47286595  0.71289438    -0.11200
C204        C  0.28487840  0.47298661  0.68596642    -0.12800
C205        C  0.13490457  0.47333283  0.67872881    -0.11200
C206        C  0.10310826  0.47318146  0.70040334    -0.12800
C207        C  0.32979915  0.32052630  0.95003418    -0.11200
C208        C  0.36154637  0.35220804  0.92832761    -0.12800
C209        C  0.17960210  0.17029902  0.94286065    -0.11200
C210        C  0.15144475  0.14208443  0.91591761    -0.12800
C211        C  0.36155925  0.35219821  0.70040984    -0.11200
C212        C  0.32987364  0.32045410  0.67870423    -0.12800
C213        C  0.15147217  0.14206051  0.71282390    -0.11200
C214        C  0.17967876  0.17022539  0.68588053    -0.12800
C215        C  0.21707678  0.70760071  0.15916720     0.82300
N216        N  0.21533938  0.70592064  0.11335793    -0.76000
C217        C  0.25139814  0.74201127  0.08909035     0.84700
N218        N  0.28869828  0.77929244  0.11079339    -0.76000
C219        C  0.29035122  0.78088934  0.15622337     0.84800
N220        N  0.25456157  0.74506623  0.18042137    -0.77700
C221        C  0.21696446  0.70771091  0.46957339     0.82300
N222        N  0.21528106  0.70597816  0.01538273    -0.76000
C223        C  0.25136084  0.74204804  0.03964974     0.84700
N224        N  0.28863571  0.77935441  0.01794614    -0.76000
C225        C  0.29023587  0.78100292  0.47251595     0.84800
N226        N  0.25442317  0.74520213  0.44831863    -0.77700
C227        C  0.24761017  0.97319337  0.15923131     0.82300
N228        N  0.24936768  0.97329006  0.11341769    -0.76000
C229        C  0.21341553  0.97346444  0.08912357     0.84700
N230        N  0.17617952  0.97352845  0.11081457    -0.76000
C231        C  0.17448769  0.97342210  0.15625347     0.84800
N232        N  0.21018249  0.97324698  0.18046605    -0.77700
C233        C  0.24758418  0.97298123  0.46959831     0.82300
N234        N  0.24936575  0.97319497  0.01541729    -0.76000
C235        C  0.21340191  0.97338837  0.03965898     0.84700
N236        N  0.17614034  0.97336283  0.01791420    -0.76000
C237        C  0.17442128  0.97313671  0.47247645     0.84800
N238        N  0.21012278  0.97294310  0.44831255    -0.77700
C239        C  0.48237742  0.73822622  0.15914210     0.82300
N240        N  0.48234860  0.70077026  0.18042657    -0.76000
C241        C  0.48256779  0.66508351  0.15626184     0.84700
N242        N  0.48280872  0.66681141  0.11082375    -0.75000
C243        C  0.48282441  0.70406678  0.08907933     0.84800
N244        N  0.48260543  0.74001564  0.11332240    -0.77700
C245        C  0.48258338  0.73824820  0.46950240     0.82300
N246        N  0.48269844  0.74001617  0.01531668    -0.76000
C247        C  0.48289766  0.70407883  0.03961276     0.84700
N248        N  0.48296696  0.66684655  0.01792272    -0.76000
C249        C  0.48284160  0.66514328  0.47248365     0.84800
N250        N  0.48264179  0.70082346  0.44826968    -0.77700
O251        O  0.37569419  0.51319971  0.26381482    -0.86100
C252        C  0.12116932  0.61178331  0.38024960     1.13900
O253        O  0.43205027  0.97289081  0.31438189    -1.33900
O254        O  0.08881837  0.61976892  0.26370664    -0.87600
O255        O  0.33531171  0.93248526  0.26378281    -0.88300
O256        O  0.43251206  0.92319724  0.21990300    -0.77100
O257        O  0.48226999  0.56784133  0.27212409    -0.99200
C258        C  0.06937747  0.97301214  0.23206059     1.24000
O259        O  0.48224943  0.92267998  0.31435559    -1.34100
Mn260      Mn  0.48230273  0.97291078  0.36296672     1.82100
O261        O  0.03205084  0.97299675  0.21988448    -0.76200
O262        O  0.12920150  0.57949853  0.26381151    -0.85500
C263        C  0.06936602  0.97288323  0.39664975     1.15100
C264        C  0.12117006  0.61178550  0.24849156     1.09800
O265        O  0.43255500  0.92315201  0.40883450    -0.77100
O266        O  0.03252233  0.52314863  0.31436938    -1.30800
O267        O  0.38731800  0.87793036  0.35662948    -0.96300
C268        C  0.48214606  0.83400754  0.24841095     1.08500
Mn269      Mn  0.10076464  0.52698398  0.31439019     1.48600
O270        O  0.44180089  0.82598554  0.26368994    -0.85500
Mn271      Mn  0.36375629  0.90843191  0.31439001     1.49600
O272        O  0.37574520  0.51316915  0.36506110    -0.89400
C273        C  0.48227220  0.56000834  0.23208783     1.21700
C274        C  0.34338412  0.97279699  0.38032567     1.13800
Mn275      Mn  0.48227820  0.97293657  0.26577118     1.81000
O276        O  0.07720159  0.97288397  0.35661374    -0.94500
Mn277      Mn  0.42822082  0.53729113  0.31441140     1.49300
C278        C  0.34332949  0.97284450  0.24853839     1.10300
Mn279      Mn  0.04664707  0.91883965  0.31432531     1.49900
C280        C  0.48219295  0.83395060  0.38019694     1.13200
O281        O  0.38728845  0.87796134  0.27210774    -1.00300
O282        O  0.12914915  0.57942993  0.36503532    -0.90000
C283        C  0.39517385  0.88585798  0.23207808     1.24500
O284        O  0.07721923  0.97295400  0.27209507    -1.00700
O285        O  0.08888436  0.61981869  0.36492849    -0.88100
O286        O  0.02255039  0.86631219  0.36491974    -0.87700
O287        O  0.33535641  0.93245299  0.36504549    -0.87700
Mn288      Mn  0.03636928  0.59139292  0.31434950     1.47900
O289        O  0.03207361  0.97291090  0.40884074    -0.76200
C290        C  0.39521323  0.88581642  0.39665927     1.17500
O291        O  0.48228991  0.52271249  0.21989703    -0.75000
O292        O  0.48237232  0.52268713  0.40885388    -0.74600
Mn293      Mn  0.41778450  0.85439213  0.31434699     1.51100
O294        O  0.02252059  0.86636670  0.26367496    -0.86900
O295        O  0.48233717  0.56785720  0.35664351    -0.94400
O296        O  0.44183254  0.82594020  0.36495544    -0.89500
C297        C  0.48239576  0.56001635  0.39667816     1.15300
C298        C  0.48274492  0.62555665  0.45000959    -0.11200
C299        C  0.48258062  0.59375436  0.42833568    -0.12800
C300        C  0.48235044  0.77550174  0.44276444    -0.11200
C301        C  0.48221515  0.80363209  0.41583773    -0.12800
C302        C  0.48236043  0.59372306  0.20044724    -0.11200
C303        C  0.48246804  0.62550847  0.17877788    -0.12800
C304        C  0.48212220  0.80368885  0.21275385    -0.11200
C305        C  0.48219570  0.77552712  0.18583717    -0.12800
C306        C  0.31306923  0.97277202  0.41598623    -0.11200
C307        C  0.28490088  0.97282885  0.44290517    -0.12800
C308        C  0.10307089  0.97295106  0.42829007    -0.11200
C309        C  0.13484911  0.97304322  0.44995978    -0.12800
C310        C  0.31301504  0.97286593  0.21289430    -0.11200
C311        C  0.28487845  0.97298672  0.18596637    -0.12800
C312        C  0.13490454  0.97333271  0.17872877    -0.11200
C313        C  0.10310825  0.97318136  0.20040331    -0.12800
C314        C  0.32979919  0.82052631  0.45003413    -0.11200
C315        C  0.36154646  0.85220821  0.42832772    -0.12800
C316        C  0.17960205  0.67029915  0.44286057    -0.11200
C317        C  0.15144482  0.64208455  0.41591748    -0.12800
C318        C  0.36155909  0.85219827  0.20040980    -0.11200
C319        C  0.32987349  0.82045403  0.17870429    -0.12800
C320        C  0.15147220  0.64206043  0.21282394    -0.11200
C321        C  0.17967880  0.67022528  0.18588062    -0.12800
C322        C  0.21707677  0.70760069  0.65916716     0.82300
N323        N  0.21533948  0.70592065  0.61335784    -0.76000
C324        C  0.25139818  0.74201115  0.58909032     0.84700
N325        N  0.28869836  0.77929247  0.61079332    -0.76000
C326        C  0.29035120  0.78088940  0.65622334     0.84800
N327        N  0.25456161  0.74506628  0.68042129    -0.77700
C328        C  0.21696452  0.70771091  0.96957341     0.82300
N329        N  0.21528103  0.70597807  0.51538270    -0.76000
C330        C  0.25136091  0.74204804  0.53964967     0.84700
N331        N  0.28863563  0.77935435  0.51794605    -0.76000
C332        C  0.29023591  0.78100294  0.97251603     0.84800
N333        N  0.25442328  0.74520217  0.94831870    -0.77700
C334        C  0.24761009  0.97319343  0.65923135     0.82300
N335        N  0.24936765  0.97329012  0.61341773    -0.76000
C336        C  0.21341541  0.97346451  0.58912363     0.84700
N337        N  0.17617949  0.97352851  0.61081459    -0.76000
C338        C  0.17448760  0.97342216  0.65625350     0.84800
N339        N  0.21018247  0.97324704  0.68046607    -0.77700
C340        C  0.24758413  0.97298121  0.96959824     0.82300
N341        N  0.24936573  0.97319503  0.51541741    -0.76000
C342        C  0.21340196  0.97338843  0.53965901     0.84700
N343        N  0.17614030  0.97336287  0.51791424    -0.76000
C344        C  0.17442126  0.97313676  0.97247645     0.84800
N345        N  0.21012280  0.97294317  0.94831246    -0.77700
C346        C  0.48237737  0.73822613  0.65914216     0.82300
N347        N  0.48234848  0.70077016  0.68042661    -0.76000
C348        C  0.48256786  0.66508350  0.65626184     0.84700
N349        N  0.48280886  0.66681144  0.61082380    -0.75000
C350        C  0.48282451  0.70406681  0.58907936     0.84800
N351        N  0.48260552  0.74001565  0.61332247    -0.77700
C352        C  0.48258351  0.73824832  0.96950231     0.82300
N353        N  0.48269816  0.74001599  0.51531673    -0.76000
C354        C  0.48289761  0.70407875  0.53961286     0.84700
N355        N  0.48296702  0.66684653  0.51792281    -0.76000
C356        C  0.48284162  0.66514334  0.97248351     0.84800
N357        N  0.48264172  0.70082349  0.94826959    -0.77700
O358        O  0.37569417  0.51319966  0.76381491    -0.86100
C359        C  0.12116930  0.61178327  0.88024962     1.13900
O360        O  0.43205024  0.97289076  0.81438185    -1.33900
O361        O  0.08881839  0.61976895  0.76370670    -0.87600
O362        O  0.33531173  0.93248531  0.76378286    -0.88300
O363        O  0.43251216  0.92319726  0.71990307    -0.77100
O364        O  0.48226990  0.56784128  0.77212403    -0.99200
C365        C  0.06937743  0.97301217  0.73206062     1.24000
O366        O  0.48224940  0.92267994  0.81435562    -1.34100
Mn367      Mn  0.48230266  0.97291078  0.86296670     1.82100
O368        O  0.03205081  0.97299678  0.71988454    -0.76200
O369        O  0.12920134  0.57949838  0.76381125    -0.85500
C370        C  0.06936603  0.97288333  0.89664977     1.15100
C371        C  0.12117002  0.61178552  0.74849151     1.09800
O372        O  0.43255482  0.92315206  0.90883447    -0.77100
O373        O  0.03252236  0.52314859  0.81436935    -1.30800
O374        O  0.38731795  0.87793037  0.85662944    -0.96300
C375        C  0.48214609  0.83400757  0.74841101     1.08500
Mn376      Mn  0.10076469  0.52698397  0.81439011     1.48600
O377        O  0.44180087  0.82598548  0.76369000    -0.85500
Mn378      Mn  0.36375624  0.90843192  0.81439005     1.49600
O379        O  0.37574523  0.51316911  0.86506118    -0.89400
C380        C  0.48227219  0.56000833  0.73208775     1.21700
C381        C  0.34338419  0.97279695  0.88032574     1.13800
Mn382      Mn  0.48227827  0.97293661  0.76577119     1.81000
O383        O  0.07720169  0.97288407  0.85661378    -0.94500
Mn384      Mn  0.42822077  0.53729116  0.81441143     1.49300
C385        C  0.34332953  0.97284455  0.74853845     1.10300
Mn386      Mn  0.04664714  0.91883972  0.81432536     1.49900
C387        C  0.48219299  0.83395066  0.88019701     1.13200
O388        O  0.38728843  0.87796135  0.77210778    -1.00300
O389        O  0.12914924  0.57942998  0.86503527    -0.90000
C390        C  0.39517391  0.88585800  0.73207813     1.24500
O391        O  0.07721925  0.97295402  0.77209509    -1.00700
O392        O  0.08888434  0.61981864  0.86492845    -0.88100
O393        O  0.02255042  0.86631232  0.86491982    -0.87700
O394        O  0.33535641  0.93245294  0.86504558    -0.87700
Mn395      Mn  0.03636922  0.59139283  0.81434943     1.47900
O396        O  0.03207359  0.97291096  0.90884069    -0.76200
C397        C  0.39521313  0.88581639  0.89665920     1.17500
O398        O  0.48229005  0.52271257  0.71989696    -0.75000
O399        O  0.48237232  0.52268707  0.90885381    -0.74600
Mn400      Mn  0.41778439  0.85439203  0.81434703     1.51100
O401        O  0.02252069  0.86636672  0.76367500    -0.86900
O402        O  0.48233712  0.56785717  0.85664348    -0.94400
O403        O  0.44183257  0.82594023  0.86495549    -0.89500
C404        C  0.48239573  0.56001631  0.89667809     1.15300
C405        C  0.48274498  0.62555671  0.95000947    -0.11200
C406        C  0.48258060  0.59375429  0.92833567    -0.12800
C407        C  0.48235051  0.77550183  0.94276445    -0.11200
C408        C  0.48221515  0.80363219  0.91583779    -0.12800
C409        C  0.48236055  0.59372313  0.70044722    -0.11200
C410        C  0.48246816  0.62550855  0.67877789    -0.12800
C411        C  0.48212228  0.80368884  0.71275394    -0.11200
C412        C  0.48219568  0.77552703  0.68583729    -0.12800
C413        C  0.31306928  0.97277198  0.91598627    -0.11200
C414        C  0.28490081  0.97282870  0.94290507    -0.12800
C415        C  0.10307080  0.97295112  0.92829019    -0.11200
C416        C  0.13484906  0.97304328  0.94995983    -0.12800
C417        C  0.31301500  0.97286600  0.71289439    -0.11200
C418        C  0.28487844  0.97298679  0.68596643    -0.12800
C419        C  0.13490449  0.97333277  0.67872881    -0.11200
C420        C  0.10310819  0.97318141  0.70040335    -0.12800
C421        C  0.32979917  0.82052636  0.95003415    -0.11200
C422        C  0.36154639  0.85220809  0.92832759    -0.12800
C423        C  0.17960210  0.67029916  0.94286061    -0.11200
C424        C  0.15144472  0.64208446  0.91591760    -0.12800
C425        C  0.36155920  0.85219829  0.70040980    -0.11200
C426        C  0.32987358  0.82045411  0.67870422    -0.12800
C427        C  0.15147213  0.64206052  0.71282392    -0.11200
C428        C  0.17967870  0.67022536  0.68588051    -0.12800
C429        C  0.71707667  0.20760073  0.15916721     0.82300
N430        N  0.71533931  0.20592065  0.11335794    -0.76000
C431        C  0.75139800  0.24201116  0.08909035     0.84700
N432        N  0.78869822  0.27929245  0.11079338    -0.76000
C433        C  0.79035112  0.28088936  0.15622336     0.84800
N434        N  0.75456151  0.24506628  0.18042137    -0.77700
C435        C  0.71696444  0.20771094  0.46957339     0.82300
N436        N  0.71528088  0.20597810  0.01538274    -0.76000
C437        C  0.75136079  0.24204804  0.03964973     0.84700
N438        N  0.78863560  0.27935429  0.01794613    -0.76000
C439        C  0.79023589  0.28100292  0.47251600     0.84800
N440        N  0.75442326  0.24520214  0.44831869    -0.77700
C441        C  0.74761013  0.47319335  0.15923131     0.82300
N442        N  0.74936766  0.47329009  0.11341769    -0.76000
C443        C  0.71341552  0.47346450  0.08912357     0.84700
N444        N  0.67617951  0.47352850  0.11081458    -0.76000
C445        C  0.67448769  0.47342215  0.15625346     0.84800
N446        N  0.71018250  0.47324701  0.18046605    -0.77700
C447        C  0.74758416  0.47298122  0.46959830     0.82300
N448        N  0.74936574  0.47319495  0.01541731    -0.76000
C449        C  0.71340192  0.47338842  0.03965899     0.84700
N450        N  0.67614037  0.47336288  0.01791420    -0.76000
C451        C  0.67442130  0.47313678  0.47247647     0.84800
N452        N  0.71012278  0.47294314  0.44831256    -0.77700
C453        C  0.98237751  0.23822620  0.15914213     0.82300
N454        N  0.98234854  0.20077018  0.18042657    -0.76000
C455        C  0.98256772  0.16508345  0.15626182     0.84700
N456        N  0.98280863  0.16681134  0.11082374    -0.75000
C457        C  0.98282439  0.20406678  0.08907933     0.84800
N458        N  0.98260558  0.24001568  0.11332242    -0.77700
C459        C  0.98258353  0.23824826  0.46950237     0.82300
N460        N  0.98269833  0.24001614  0.01531669    -0.76000
C461        C  0.98289752  0.20407873  0.03961275     0.84700
N462        N  0.98296684  0.16684651  0.01792271    -0.76000
C463        C  0.98284173  0.16514331  0.47248365     0.84800
N464        N  0.98264185  0.20082349  0.44826966    -0.77700
O465        O  0.87569411  0.01319961  0.26381486    -0.86100
C466        C  0.62116936  0.11178328  0.38024959     1.13900
O467        O  0.93205026  0.47289081  0.31438189    -1.33900
O468        O  0.58881843  0.11976889  0.26370671    -0.87600
O469        O  0.83531190  0.43248539  0.26378278    -0.88300
O470        O  0.93251217  0.42319720  0.21990301    -0.77100
O471        O  0.98227000  0.06784132  0.27212410    -0.99200
C472        C  0.56937753  0.47301219  0.23206059     1.24000
O473        O  0.98224939  0.42267994  0.31435560    -1.34100
Mn474      Mn  0.98230270  0.47291079  0.36296673     1.82100
O475        O  0.53205091  0.47299679  0.21988449    -0.76200
O476        O  0.62920148  0.07949841  0.26381142    -0.85500
C477        C  0.56936600  0.47288327  0.39664976     1.15100
C478        C  0.62117009  0.11178545  0.24849158     1.09800
O479        O  0.93255492  0.42315202  0.40883449    -0.77100
O480        O  0.53252237  0.02314857  0.31436937    -1.30800
O481        O  0.88731792  0.37793032  0.35662947    -0.96300
C482        C  0.98214612  0.33400755  0.24841094     1.08500
Mn483      Mn  0.60076471  0.02698394  0.31439018     1.48600
O484        O  0.94180089  0.32598549  0.26368989    -0.85500
Mn485      Mn  0.86375630  0.40843194  0.31439001     1.49600
O486        O  0.87574514  0.01316915  0.36506109    -0.89400
C487        C  0.98227223  0.06000838  0.23208783     1.21700
C488        C  0.84338415  0.47279701  0.38032567     1.13800
Mn489      Mn  0.98227820  0.47293659  0.26577120     1.81000
O490        O  0.57720154  0.47288399  0.35661374    -0.94500
Mn491      Mn  0.92822077  0.03729114  0.31441140     1.49300
C492        C  0.84332964  0.47284461  0.24853836     1.10300
Mn493      Mn  0.54664706  0.41883969  0.31432530     1.49900
C494        C  0.98219288  0.33395062  0.38019696     1.13200
O495        O  0.88728844  0.37796133  0.27210772    -1.00300
O496        O  0.62914922  0.07942991  0.36503531    -0.90000
C497        C  0.89517390  0.38585798  0.23207807     1.24500
O498        O  0.57721931  0.47295403  0.27209506    -1.00700
O499        O  0.58888442  0.11981866  0.36492844    -0.88100
O500        O  0.52255047  0.36631230  0.36491974    -0.87700
O501        O  0.83535649  0.43245302  0.36504552    -0.87700
Mn502      Mn  0.53636925  0.09139282  0.31434949     1.47900
O503        O  0.53207362  0.47291095  0.40884076    -0.76200
C504        C  0.89521318  0.38581638  0.39665926     1.17500
O505        O  0.98228986  0.02271250  0.21989702    -0.75000
O506        O  0.98237224  0.02268707  0.40885385    -0.74600
Mn507      Mn  0.91778438  0.35439202  0.31434697     1.51100
O508        O  0.52252060  0.36636675  0.26367491    -0.86900
O509        O  0.98233713  0.06785719  0.35664352    -0.94400
O510        O  0.94183245  0.32594017  0.36495545    -0.89500
C511        C  0.98239571  0.06001631  0.39667816     1.15300
C512        C  0.98274512  0.12555670  0.45000963    -0.11200
C513        C  0.98258070  0.09375433  0.42833573    -0.12800
C514        C  0.98235044  0.27550177  0.44276443    -0.11200
C515        C  0.98221509  0.30363212  0.41583775    -0.12800
C516        C  0.98236042  0.09372309  0.20044726    -0.11200
C517        C  0.98246796  0.12550845  0.17877788    -0.12800
C518        C  0.98212235  0.30368883  0.21275389    -0.11200
C519        C  0.98219582  0.27552706  0.18583723    -0.12800
C520        C  0.81306917  0.47277198  0.41598618    -0.11200
C521        C  0.78490076  0.47282869  0.44290512    -0.12800
C522        C  0.60307088  0.47295110  0.42829008    -0.11200
C523        C  0.63484910  0.47304328  0.44995979    -0.12800
C524        C  0.81301504  0.47286593  0.21289432    -0.11200
C525        C  0.78487836  0.47298655  0.18596639    -0.12800
C526        C  0.63490457  0.47333276  0.17872878    -0.11200
C527        C  0.60310829  0.47318140  0.20040331    -0.12800
C528        C  0.82979922  0.32052631  0.45003418    -0.11200
C529        C  0.86154651  0.35220808  0.42832771    -0.12800
C530        C  0.67960203  0.17029918  0.44286059    -0.11200
C531        C  0.65144478  0.14208446  0.41591754    -0.12800
C532        C  0.86155909  0.35219832  0.20040976    -0.11200
C533        C  0.82987344  0.32045410  0.17870428    -0.12800
C534        C  0.65147221  0.14206042  0.21282396    -0.11200
C535        C  0.67967874  0.17022533  0.18588063    -0.12800
C536        C  0.71707672  0.20760074  0.65916717     0.82300
N537        N  0.71533940  0.20592069  0.61335785    -0.76000
C538        C  0.75139813  0.24201120  0.58909034     0.84700
N539        N  0.78869832  0.27929248  0.61079332    -0.76000
C540        C  0.79035121  0.28088937  0.65622334     0.84800
N541        N  0.75456157  0.24506628  0.68042129    -0.77700
C542        C  0.71696444  0.20771089  0.96957343     0.82300
N543        N  0.71528098  0.20597817  0.51538273    -0.76000
C544        C  0.75136088  0.24204805  0.53964969     0.84700
N545        N  0.78863569  0.27935435  0.51794613    -0.76000
C546        C  0.79023587  0.28100290  0.97251602     0.84800
N547        N  0.75442318  0.24520206  0.94831869    -0.77700
C548        C  0.74761017  0.47319334  0.65923135     0.82300
N549        N  0.74936758  0.47328984  0.61341771    -0.76000
C550        C  0.71341544  0.47346427  0.58912363     0.84700
N551        N  0.67617955  0.47352849  0.61081459    -0.76000
C552        C  0.67448776  0.47342222  0.65625350     0.84800
N553        N  0.71018256  0.47324709  0.68046606    -0.77700
C554        C  0.74758407  0.47298108  0.96959826     0.82300
N555        N  0.74936573  0.47319496  0.51541738    -0.76000
C556        C  0.71340187  0.47338826  0.53965902     0.84700
N557        N  0.67614031  0.47336283  0.51791427    -0.76000
C558        C  0.67442132  0.47313681  0.97247644     0.84800
N559        N  0.71012281  0.47294313  0.94831248    -0.77700
C560        C  0.98237733  0.23822614  0.65914217     0.82300
N561        N  0.98234850  0.20077015  0.68042661    -0.76000
C562        C  0.98256782  0.16508351  0.65626183     0.84700
N563        N  0.98280878  0.16681143  0.61082378    -0.75000
C564        C  0.98282444  0.20406683  0.58907936     0.84800
N565        N  0.98260544  0.24001564  0.61332249    -0.77700
C566        C  0.98258351  0.23824833  0.96950232     0.82300
N567        N  0.98269835  0.24001610  0.51531671    -0.76000
C568        C  0.98289761  0.20407875  0.53961285     0.84700
N569        N  0.98296701  0.16684655  0.51792282    -0.76000
C570        C  0.98284162  0.16514335  0.97248350     0.84800
N571        N  0.98264185  0.20082359  0.94826959    -0.77700
O572        O  0.87569418  0.01319960  0.76381490    -0.86100
C573        C  0.62116929  0.11178330  0.88024960     1.13900
O574        O  0.93205029  0.47289080  0.81438190    -1.33900
O575        O  0.58881838  0.11976889  0.76370669    -0.87600
O576        O  0.83531177  0.43248535  0.76378289    -0.88300
O577        O  0.93251206  0.42319728  0.71990305    -0.77100
O578        O  0.98226989  0.06784111  0.77212406    -0.99200
C579        C  0.56937753  0.47301221  0.73206062     1.24000
O580        O  0.98224948  0.42267993  0.81435558    -1.34100
Mn581      Mn  0.98230271  0.47291070  0.86296667     1.82100
O582        O  0.53205094  0.47299684  0.71988451    -0.76200
O583        O  0.62920141  0.07949841  0.76381124    -0.85500
C584        C  0.56936603  0.47288328  0.89664977     1.15100
C585        C  0.62117001  0.11178547  0.74849147     1.09800
O586        O  0.93255497  0.42315185  0.90883442    -0.77100
O587        O  0.53252238  0.02314862  0.81436934    -1.30800
O588        O  0.88731793  0.37793024  0.85662945    -0.96300
C589        C  0.98214608  0.33400753  0.74841102     1.08500
Mn590      Mn  0.60076467  0.02698401  0.81439010     1.48600
O591        O  0.94180090  0.32598551  0.76369000    -0.85500
Mn592      Mn  0.86375632  0.40843194  0.81439006     1.49600
O593        O  0.87574516  0.01316907  0.86506114    -0.89400
C594        C  0.98227217  0.06000829  0.73208775     1.21700
C595        C  0.84338415  0.47279699  0.88032571     1.13800
Mn596      Mn  0.98227822  0.47293661  0.76577119     1.81000
O597        O  0.57720161  0.47288402  0.85661376    -0.94500
Mn598      Mn  0.92822075  0.03729097  0.81441143     1.49300
C599        C  0.84332953  0.47284458  0.74853848     1.10300
Mn600      Mn  0.54664711  0.41883970  0.81432536     1.49900
C601        C  0.98219301  0.33395070  0.88019702     1.13200
O602        O  0.88728849  0.37796137  0.77210780    -1.00300
O603        O  0.62914917  0.07942999  0.86503524    -0.90000
C604        C  0.89517387  0.38585800  0.73207815     1.24500
O605        O  0.57721926  0.47295403  0.77209509    -1.00700
O606        O  0.58888436  0.11981871  0.86492847    -0.88100
O607        O  0.52255050  0.36631232  0.86491983    -0.87700
O608        O  0.83535642  0.43245297  0.86504558    -0.87700
Mn609      Mn  0.53636923  0.09139279  0.81434943     1.47900
O610        O  0.53207361  0.47291093  0.90884073    -0.76200
C611        C  0.89521320  0.38581626  0.89665921     1.17500
O612        O  0.98228996  0.02271253  0.71989688    -0.75000
O613        O  0.98237236  0.02268707  0.90885388    -0.74600
Mn614      Mn  0.91778447  0.35439204  0.81434703     1.51100
O615        O  0.52252068  0.36636675  0.76367499    -0.86900
O616        O  0.98233708  0.06785701  0.85664348    -0.94400
O617        O  0.94183257  0.32594023  0.86495551    -0.89500
C618        C  0.98239569  0.06001623  0.89667811     1.15300
C619        C  0.98274493  0.12555670  0.95000944    -0.11200
C620        C  0.98258054  0.09375428  0.92833563    -0.12800
C621        C  0.98235053  0.27550186  0.94276444    -0.11200
C622        C  0.98221522  0.30363223  0.91583778    -0.12800
C623        C  0.98236049  0.09372316  0.70044729    -0.11200
C624        C  0.98246810  0.12550852  0.67877788    -0.12800
C625        C  0.98212221  0.30368881  0.71275393    -0.11200
C626        C  0.98219561  0.27552698  0.68583730    -0.12800
C627        C  0.81306923  0.47277201  0.91598624    -0.11200
C628        C  0.78490078  0.47282868  0.94290508    -0.12800
C629        C  0.60307093  0.47295116  0.92829012    -0.11200
C630        C  0.63484917  0.47304334  0.94995980    -0.12800
C631        C  0.81301504  0.47286595  0.71289438    -0.11200
C632        C  0.78487839  0.47298661  0.68596642    -0.12800
C633        C  0.63490462  0.47333283  0.67872882    -0.11200
C634        C  0.60310833  0.47318146  0.70040337    -0.12800
C635        C  0.82979922  0.32052625  0.95003418    -0.11200
C636        C  0.86154651  0.35220800  0.92832766    -0.12800
C637        C  0.67960203  0.17029902  0.94286065    -0.11200
C638        C  0.65144475  0.14208442  0.91591759    -0.12800
C639        C  0.86155912  0.35219823  0.70040985    -0.11200
C640        C  0.82987355  0.32045409  0.67870423    -0.12800
C641        C  0.65147206  0.14206052  0.71282388    -0.11200
C642        C  0.67967863  0.17022541  0.68588052    -0.12800
C643        C  0.71707681  0.70760069  0.15916720     0.82300
N644        N  0.71533949  0.70592056  0.11335793    -0.76000
C645        C  0.75139820  0.74201121  0.08909036     0.84700
N646        N  0.78869826  0.77929249  0.11079340    -0.76000
C647        C  0.79035118  0.78088941  0.15622339     0.84800
N648        N  0.75456154  0.74506627  0.18042138    -0.77700
C649        C  0.71696450  0.70771087  0.46957338     0.82300
N650        N  0.71528106  0.70597806  0.01538275    -0.76000
C651        C  0.75136091  0.74204795  0.03964973     0.84700
N652        N  0.78863567  0.77935434  0.01794611    -0.76000
C653        C  0.79023586  0.78100292  0.47251596     0.84800
N654        N  0.75442324  0.74520208  0.44831863    -0.77700
C655        C  0.74761012  0.97319337  0.15923129     0.82300
N656        N  0.74936761  0.97329006  0.11341768    -0.76000
C657        C  0.71341544  0.97346444  0.08912357     0.84700
N658        N  0.67617949  0.97352852  0.11081459    -0.76000
C659        C  0.67448773  0.97342227  0.15625347     0.84800
N660        N  0.71018252  0.97324705  0.18046606    -0.77700
C661        C  0.74758413  0.97298123  0.46959828     0.82300
N662        N  0.74936571  0.97319497  0.01541730    -0.76000
C663        C  0.71340185  0.97338836  0.03965899     0.84700
N664        N  0.67614030  0.97336283  0.01791420    -0.76000
C665        C  0.67442125  0.97313671  0.47247647     0.84800
N666        N  0.71012275  0.97294310  0.44831255    -0.77700
C667        C  0.98237755  0.73822629  0.15914211     0.82300
N668        N  0.98234852  0.70077022  0.18042657    -0.76000
C669        C  0.98256764  0.66508345  0.15626184     0.84700
N670        N  0.98280856  0.66681135  0.11082374    -0.75000
C671        C  0.98282434  0.70406677  0.08907933     0.84800
N672        N  0.98260556  0.74001573  0.11332241    -0.77700
C673        C  0.98258351  0.73824823  0.46950237     0.82300
N674        N  0.98269829  0.74001613  0.01531667    -0.76000
C675        C  0.98289751  0.70407880  0.03961275     0.84700
N676        N  0.98296682  0.66684651  0.01792272    -0.76000
C677        C  0.98284165  0.66514327  0.47248366     0.84800
N678        N  0.98264179  0.70082344  0.44826967    -0.77700
O679        O  0.87569425  0.51319970  0.26381479    -0.86100
C680        C  0.62116940  0.61178330  0.38024958     1.13900
O681        O  0.93205022  0.97289078  0.31438189    -1.33900
O682        O  0.58881841  0.61976893  0.26370668    -0.87600
O683        O  0.83531181  0.93248528  0.26378276    -0.88300
O684        O  0.93251216  0.92319721  0.21990300    -0.77100
O685        O  0.98226998  0.56784133  0.27212409    -0.99200
C686        C  0.56937747  0.97301214  0.23206059     1.24000
O687        O  0.98224938  0.92267990  0.31435560    -1.34100
Mn688      Mn  0.98230267  0.97291075  0.36296673     1.82100
O689        O  0.53205084  0.97299674  0.21988450    -0.76200
O690        O  0.62920153  0.57949852  0.26381148    -0.85500
C691        C  0.56936600  0.97288324  0.39664976     1.15100
C692        C  0.62117008  0.61178550  0.24849158     1.09800
O693        O  0.93255491  0.92315204  0.40883450    -0.77100
O694        O  0.53252240  0.52314866  0.31436937    -1.30800
O695        O  0.88731797  0.87793032  0.35662947    -0.96300
C696        C  0.98214606  0.83400752  0.24841095     1.08500
Mn697      Mn  0.60076472  0.52698397  0.31439019     1.48600
O698        O  0.94180082  0.82598544  0.26368990    -0.85500
Mn699      Mn  0.86375628  0.90843188  0.31439001     1.49600
O700        O  0.87574521  0.51316915  0.36506112    -0.89400
C701        C  0.98227223  0.56000836  0.23208782     1.21700
C702        C  0.84338415  0.97279701  0.38032568     1.13800
Mn703      Mn  0.98227817  0.97293655  0.26577118     1.81000
O704        O  0.57720161  0.97288397  0.35661376    -0.94500
Mn705      Mn  0.92822080  0.53729115  0.31441140     1.49300
C706        C  0.84332954  0.97284452  0.24853839     1.10300
Mn707      Mn  0.54664704  0.91883966  0.31432531     1.49900
C708        C  0.98219289  0.83395058  0.38019696     1.13200
O709        O  0.88728848  0.87796132  0.27210772    -1.00300
O710        O  0.62914930  0.57942995  0.36503533    -0.90000
C711        C  0.89517396  0.88585794  0.23207808     1.24500
O712        O  0.57721927  0.97295399  0.27209506    -1.00700
O713        O  0.58888443  0.61981865  0.36492844    -0.88100
O714        O  0.52255041  0.86631226  0.36491975    -0.87700
O715        O  0.83535650  0.93245301  0.36504554    -0.87700
Mn716      Mn  0.53636930  0.59139293  0.31434950     1.47900
O717        O  0.53207359  0.97291090  0.40884071    -0.76200
C718        C  0.89521320  0.88581639  0.39665927     1.17500
O719        O  0.98229003  0.52271256  0.21989703    -0.75000
O720        O  0.98237220  0.52268709  0.40885386    -0.74600
Mn721      Mn  0.91778438  0.85439199  0.31434698     1.51100
O722        O  0.52252063  0.86636669  0.26367494    -0.86900
O723        O  0.98233712  0.56785722  0.35664351    -0.94400
O724        O  0.94183248  0.82594017  0.36495546    -0.89500
C725        C  0.98239569  0.56001634  0.39667815     1.15300
C726        C  0.98274509  0.62555671  0.45000963    -0.11200
C727        C  0.98258074  0.59375441  0.42833570    -0.12800
C728        C  0.98235054  0.77550178  0.44276442    -0.11200
C729        C  0.98221510  0.80363208  0.41583775    -0.12800
C730        C  0.98236035  0.59372303  0.20044724    -0.11200
C731        C  0.98246788  0.62550841  0.17877789    -0.12800
C732        C  0.98212232  0.80368886  0.21275388    -0.11200
C733        C  0.98219589  0.77552718  0.18583719    -0.12800
C734        C  0.81306917  0.97277200  0.41598619    -0.11200
C735        C  0.78490082  0.97282884  0.44290510    -0.12800
C736        C  0.60307082  0.97295106  0.42829014    -0.11200
C737        C  0.63484905  0.97304322  0.44995983    -0.12800
C738        C  0.81301502  0.97286591  0.21289429    -0.11200
C739        C  0.78487846  0.97298671  0.18596634    -0.12800
C740        C  0.63490454  0.97333277  0.17872879    -0.11200
C741        C  0.60310822  0.97318135  0.20040330    -0.12800
C742        C  0.82979916  0.82052633  0.45003414    -0.11200
C743        C  0.86154648  0.85220817  0.42832771    -0.12800
C744        C  0.67960202  0.67029919  0.44286058    -0.11200
C745        C  0.65144479  0.64208456  0.41591750    -0.12800
C746        C  0.86155924  0.85219822  0.20040978    -0.11200
C747        C  0.82987357  0.82045401  0.17870430    -0.12800
C748        C  0.65147216  0.64206044  0.21282391    -0.11200
C749        C  0.67967874  0.67022530  0.18588059    -0.12800
C750        C  0.71707671  0.70760072  0.65916716     0.82300
N751        N  0.71533937  0.70592067  0.61335784    -0.76000
C752        C  0.75139808  0.74201120  0.58909032     0.84700
N753        N  0.78869828  0.77929247  0.61079331    -0.76000
C754        C  0.79035118  0.78088937  0.65622333     0.84800
N755        N  0.75456155  0.74506628  0.68042128    -0.77700
C756        C  0.71696449  0.70771086  0.96957342     0.82300
N757        N  0.71528097  0.70597812  0.51538269    -0.76000
C758        C  0.75136085  0.74204804  0.53964967     0.84700
N759        N  0.78863565  0.77935432  0.51794606    -0.76000
C760        C  0.79023590  0.78100289  0.97251601     0.84800
N761        N  0.75442329  0.74520203  0.94831869    -0.77700
C762        C  0.74761017  0.97319343  0.65923137     0.82300
N763        N  0.74936769  0.97329012  0.61341773    -0.76000
C764        C  0.71341555  0.97346451  0.58912363     0.84700
N765        N  0.67617952  0.97352851  0.61081458    -0.76000
C766        C  0.67448769  0.97342216  0.65625349     0.84800
N767        N  0.71018248  0.97324704  0.68046606    -0.77700
C768        C  0.74758410  0.97298121  0.96959825     0.82300
N769        N  0.74936578  0.97319503  0.51541737    -0.76000
C770        C  0.71340194  0.97338843  0.53965901     0.84700
N771        N  0.67614035  0.97336287  0.51791427    -0.76000
C772        C  0.67442125  0.97313676  0.97247644     0.84800
N773        N  0.71012278  0.97294317  0.94831247    -0.77700
C774        C  0.98237745  0.73822619  0.65914217     0.82300
N775        N  0.98234861  0.70077024  0.68042662    -0.76000
C776        C  0.98256779  0.66508349  0.65626184     0.84700
N777        N  0.98280870  0.66681140  0.61082379    -0.75000
C778        C  0.98282437  0.70406677  0.58907936     0.84800
N779        N  0.98260543  0.74001564  0.61332248    -0.77700
C780        C  0.98258343  0.73824830  0.96950230     0.82300
N781        N  0.98269829  0.74001606  0.51531671    -0.76000
C782        C  0.98289752  0.70407872  0.53961286     0.84700
N783        N  0.98296693  0.66684650  0.51792283    -0.76000
C784        C  0.98284159  0.66514334  0.97248352     0.84800
N785        N  0.98264180  0.70082353  0.94826959    -0.77700
O786        O  0.87569415  0.51319966  0.76381493    -0.86100
C787        C  0.62116924  0.61178327  0.88024963     1.13900
O788        O  0.93205027  0.97289076  0.81438189    -1.33900
O789        O  0.58881839  0.61976893  0.76370665    -0.87600
O790        O  0.83531173  0.93248531  0.76378289    -0.88300
O791        O  0.93251202  0.92319728  0.71990308    -0.77100
O792        O  0.98226991  0.56784127  0.77212404    -0.99200
C793        C  0.56937753  0.97301217  0.73206063     1.24000
O794        O  0.98224944  0.92267995  0.81435560    -1.34100
Mn795      Mn  0.98230275  0.97291079  0.86296668     1.82100
O796        O  0.53205092  0.97299679  0.71988456    -0.76200
O797        O  0.62920135  0.57949840  0.76381128    -0.85500
C798        C  0.56936601  0.97288332  0.89664978     1.15100
C799        C  0.62117004  0.61178552  0.74849150     1.09800
O800        O  0.93255496  0.92315203  0.90883445    -0.77100
O801        O  0.53252232  0.52314857  0.81436936    -1.30800
O802        O  0.88731800  0.87793035  0.85662945    -0.96300
C803        C  0.98214612  0.83400757  0.74841101     1.08500
Mn804      Mn  0.60076461  0.52698397  0.81439012     1.48600
O805        O  0.94180092  0.82598553  0.76369000    -0.85500
Mn806      Mn  0.86375630  0.90843192  0.81439007     1.49600
O807        O  0.87574519  0.51316912  0.86506115    -0.89400
C808        C  0.98227215  0.56000834  0.73208775     1.21700
C809        C  0.84338416  0.97279696  0.88032572     1.13800
Mn810      Mn  0.98227820  0.97293660  0.76577119     1.81000
O811        O  0.57720159  0.97288407  0.85661376    -0.94500
Mn812      Mn  0.92822079  0.53729114  0.81441143     1.49300
C813        C  0.84332956  0.97284455  0.74853844     1.10300
Mn814      Mn  0.54664710  0.91883971  0.81432537     1.49900
C815        C  0.98219294  0.83395066  0.88019702     1.13200
O816        O  0.88728840  0.87796132  0.77210778    -1.00300
O817        O  0.62914912  0.57942995  0.86503526    -0.90000
C818        C  0.89517381  0.88585800  0.73207813     1.24500
O819        O  0.57721934  0.97295403  0.77209509    -1.00700
O820        O  0.58888431  0.61981867  0.86492848    -0.88100
O821        O  0.52255049  0.86631230  0.86491983    -0.87700
O822        O  0.83535652  0.93245296  0.86504563    -0.87700
Mn823      Mn  0.53636922  0.59139281  0.81434943     1.47900
O824        O  0.53207358  0.97291096  0.90884074    -0.76200
C825        C  0.89521322  0.88581638  0.89665921     1.17500
O826        O  0.98228991  0.52271254  0.71989693    -0.75000
O827        O  0.98237228  0.52268702  0.90885378    -0.74600
Mn828      Mn  0.91778443  0.85439204  0.81434703     1.51100
O829        O  0.52252064  0.86636676  0.76367500    -0.86900
O830        O  0.98233714  0.56785720  0.85664350    -0.94400
O831        O  0.94183251  0.82594020  0.86495551    -0.89500
C832        C  0.98239577  0.56001631  0.89667810     1.15300
C833        C  0.98274512  0.62555675  0.95000950    -0.11200
C834        C  0.98258077  0.59375435  0.92833571    -0.12800
C835        C  0.98235045  0.77550181  0.94276443    -0.11200
C836        C  0.98221515  0.80363219  0.91583777    -0.12800
C837        C  0.98236042  0.59372312  0.70044724    -0.11200
C838        C  0.98246803  0.62550851  0.67877788    -0.12800
C839        C  0.98212221  0.80368882  0.71275393    -0.11200
C840        C  0.98219561  0.77552701  0.68583729    -0.12800
C841        C  0.81306918  0.97277194  0.91598622    -0.11200
C842        C  0.78490075  0.97282869  0.94290506    -0.12800
C843        C  0.60307086  0.97295112  0.92829012    -0.11200
C844        C  0.63484909  0.97304328  0.94995980    -0.12800
C845        C  0.81301507  0.97286600  0.71289437    -0.11200
C846        C  0.78487845  0.97298679  0.68596645    -0.12800
C847        C  0.63490455  0.97333277  0.67872879    -0.11200
C848        C  0.60310826  0.97318141  0.70040333    -0.12800
C849        C  0.82979923  0.82052628  0.95003415    -0.11200
C850        C  0.86154652  0.85220805  0.92832763    -0.12800
C851        C  0.67960202  0.67029912  0.94286062    -0.11200
C852        C  0.65144471  0.64208445  0.91591758    -0.12800
C853        C  0.86155907  0.85219831  0.70040981    -0.11200
C854        C  0.82987349  0.82045411  0.67870421    -0.12800
C855        C  0.65147220  0.64206050  0.71282394    -0.11200
C856        C  0.67967876  0.67022532  0.68588053    -0.12800
loop_ 
_geom_bond_atom_site_label_1 
_geom_bond_atom_site_label_2 
_geom_bond_distance 
_geom_bond_site_symmetry_2 
_ccdc_geom_bond_type 
C1            N2   1.362       .  A
C1            N6   1.357       .  A
C1          C107   1.437       .  S
N2            C3   1.363       .  A
C3            N4   1.358       .  A
C3            C9   1.469       .  S
N4            C5   1.351       .  A
C5            N6   1.354       .  A
C5          C105   1.433       .  S
C7           N12   1.357       .  A
C7          N115   1.362       .  A
C7          C102   1.437       .  S
N8            C9   1.363       .  A
N8          C114   1.362   1_554  A
C9           N10   1.358       .  A
N10         C118   1.351   1_554  A
C11          N12   1.354       .  A
C11         N117   1.351       .  A
C11         C100   1.433       .  S
C13          N14   1.362       .  A
C13          N18   1.357       .  A
C13          C97   1.438       .  S
N14          C15   1.363       .  A
C15          N16   1.358       .  A
C15          C21   1.469       .  S
N16          C17   1.351       .  A
C17          N18   1.354       .  A
C17          C98   1.433       .  S
C19          N24   1.357       .  A
C19         N127   1.362       .  A
C19          C93   1.438       .  S
N20          C21   1.363       .  A
N20         C126   1.362   1_554  A
C21          N22   1.358       .  A
N22         C130   1.351   1_554  A
C23          N24   1.354       .  A
C23         N129   1.351       .  A
C23          C95   1.433       .  S
C25          N26   1.357       .  A
C25          N30   1.362       .  A
C25          C91   1.438       .  S
N26          C27   1.354       .  A
C27          N28   1.351       .  A
C27          C89   1.433       .  S
N28          C29   1.358       .  A
C29          N30   1.363       .  A
C29          C33   1.469       .  S
C31          N36   1.357       .  A
C31         N139   1.362       .  A
C31          C86   1.438       .  S
N32          C33   1.363       .  A
N32         C138   1.362   1_554  A
C33          N34   1.358       .  A
N34         C142   1.351   1_554  A
C35          N36   1.354       .  A
C35         N141   1.351       .  A
C35          C84   1.434       .  S
O37         Mn63   2.095       .  S
O37         C278   1.270   1_545  A
C38         C103   1.437       .  S
C38          O71   1.270       .  A
C38          O68   1.270       .  A
O39         Mn46   2.163       .  S
O39         Mn57   2.130       .  S
O39         Mn61   2.163       .  S
O39        Mn277   2.130       .  S
O40         Mn74   2.095       .  S
O40          C50   1.270       .  A
O41         Mn57   2.096       .  S
O41          C64   1.270       .  A
O42         Mn61   2.097       .  S
O42          C69   1.250       .  A
O43         Mn63   1.960       .  S
O43        Mn502   1.960       .  S
O43          C59   1.216       .  S
C44          C99   1.432       .  S
C44          O47   1.250       .  A
C44          O70   1.216       .  S
O45         Mn46   2.163       .  S
O45         Mn79   2.130       .  S
O45         Mn61   2.163       .  S
O45        Mn493   2.130       .  S
Mn46         O51   2.097       .  S
Mn46        O503   2.099       .  S
Mn46        O292   2.099       .  S
Mn46        O694   2.162       .  S
O47        Mn489   2.099   1_455  S
O48         Mn55   2.095       .  S
O48          C50   1.270       .  A
C49          C94   1.432       .  S
C49          O75   1.250       .  A
C49          O62   1.216       .  S
C50         C106   1.437       .  S
O51          C76   1.250       .  A
O52         Mn55   2.130       .  S
O52         Mn74   2.130       .  S
O52        Mn688   2.162   1_445  S
O52        Mn703   2.162   1_445  S
O53         Mn57   1.960       .  S
O53         Mn79   1.960       .  S
O53          C76   1.216       .  S
C54          C90   1.438       .  S
C54          O56   1.270       .  A
C54         O508   1.270       .  A
Mn55         O68   2.095       .  S
Mn55        O284   1.960   1_545  S
Mn55        O276   1.960   1_545  S
O56         Mn79   2.096       .  S
Mn57         O73   2.096       .  S
Mn57         O67   1.960       .  S
O58         Mn63   2.096       .  S
O58         C274   1.270   1_545  A
C59          C88   1.432       .  S
C59          O77   1.250       .  A
C60          C92   1.438       .  S
C60          O73   1.270       .  A
C60         O272   1.270       .  A
Mn61        O475   2.099       .  S
Mn61        O291   2.099       .  S
Mn61        O694   2.162       .  S
O62         Mn65   1.960       .  S
O62        Mn269   1.960       .  S
Mn63        O253   2.130   1_545  S
Mn63         O81   1.960       .  S
C64          C96   1.438       .  S
C64         O251   1.270       .  A
Mn65         O72   2.095       .  S
Mn65         O80   2.096       .  S
Mn65        O473   2.130   1_455  S
Mn65         O70   1.960       .  S
C66          C87   1.438       .  S
C66          O82   1.270       .  A
C66         O500   1.270       .  A
O67         Mn79   1.960       .  S
O67          C69   1.216       .  S
C69         C104   1.431       .  S
O70        Mn269   1.960       .  S
O71         Mn74   2.095       .  S
O72         C494   1.270   1_455  A
Mn74        O471   1.960   1_455  S
Mn74        O509   1.960   1_455  S
O75        Mn474   2.099   1_455  S
C76         C101   1.431       .  S
O77        Mn275   2.099   1_545  S
O78        Mn260   2.099   1_545  S
O78          C83   1.250       .  A
Mn79         O82   2.096       .  S
O80         C482   1.270   1_455  A
O81        Mn502   1.960       .  S
O81          C83   1.216       .  S
C83          C85   1.432       .  S
C84          C85   1.204       .  T
C86          C87   1.207       .  T
C88          C89   1.204       .  T
C90          C91   1.207       .  T
C92          C93   1.207       .  T
C94          C95   1.204       .  T
C96          C97   1.207       .  T
C98          C99   1.204       .  T
C100        C101   1.204       .  T
C102        C103   1.207       .  T
C104        C105   1.204       .  T
C106        C107   1.207       .  T
C108        N109   1.362       .  A
C108        N113   1.357       .  A
C108        C214   1.437       .  S
N109        C110   1.363       .  A
C110        N111   1.358       .  A
C110        C116   1.469       .  S
N111        C112   1.351       .  A
C112        N113   1.354       .  A
C112        C212   1.433       .  S
C114        N119   1.357       .  A
C114        C209   1.437       .  S
N115        C116   1.363       .  A
C116        N117   1.358       .  A
C118        N119   1.354       .  A
C118        C207   1.433       .  S
C120        N121   1.362       .  A
C120        N125   1.357       .  A
C120        C204   1.438       .  S
N121        C122   1.363       .  A
C122        N123   1.358       .  A
C122        C128   1.469       .  S
N123        C124   1.351       .  A
C124        N125   1.354       .  A
C124        C205   1.433       .  S
C126        N131   1.357       .  A
C126        C200   1.438       .  S
N127        C128   1.363       .  A
C128        N129   1.358       .  A
C130        N131   1.354       .  A
C130        C202   1.433       .  S
C132        N133   1.357       .  A
C132        N137   1.362       .  A
C132        C198   1.438       .  S
N133        C134   1.354       .  A
C134        N135   1.351       .  A
C134        C196   1.433       .  S
N135        C136   1.358       .  A
C136        N137   1.363       .  A
C136        C140   1.469       .  S
C138        N143   1.357       .  A
C138        C193   1.438       .  S
N139        C140   1.363       .  A
C140        N141   1.358       .  A
C142        N143   1.354       .  A
C142        C191   1.434       .  S
O144       Mn170   2.095       .  S
O144        C385   1.270   1_545  A
C145        C210   1.437       .  S
C145        O178   1.270       .  A
C145        O175   1.270       .  A
O146       Mn153   2.163       .  S
O146       Mn164   2.130       .  S
O146       Mn168   2.163       .  S
O146       Mn384   2.130       .  S
O147       Mn181   2.095       .  S
O147        C157   1.270       .  A
O148       Mn164   2.096       .  S
O148        C171   1.270       .  A
O149       Mn168   2.097       .  S
O149        C176   1.250       .  A
O150       Mn609   1.960       .  S
O150       Mn170   1.960       .  S
O150        C166   1.216       .  S
C151        C206   1.432       .  S
C151        O154   1.250       .  A
C151        O177   1.216       .  S
O152       Mn600   2.130       .  S
O152       Mn153   2.163       .  S
O152       Mn186   2.130       .  S
O152       Mn168   2.163       .  S
Mn153       O610   2.099       .  S
Mn153       O158   2.097       .  S
Mn153       O399   2.099       .  S
Mn153       O801   2.162       .  S
O154       Mn596   2.099   1_455  S
O155       Mn162   2.095       .  S
O155        C157   1.270       .  A
C156        C201   1.432       .  S
C156        O182   1.250       .  A
C156        O169   1.216       .  S
C157        C213   1.437       .  S
O158        C183   1.250       .  A
O159       Mn795   2.162   1_445  S
O159       Mn162   2.130       .  S
O159       Mn181   2.130       .  S
O159       Mn810   2.162   1_445  S
O160       Mn164   1.960       .  S
O160       Mn186   1.960       .  S
O160        C183   1.216       .  S
C161        C197   1.438       .  S
C161        O615   1.270       .  A
C161        O163   1.270       .  A
Mn162       O175   2.095       .  S
Mn162       O391   1.960   1_545  S
Mn162       O383   1.960   1_545  S
O163       Mn186   2.096       .  S
Mn164       O180   2.096       .  S
Mn164       O174   1.960       .  S
O165       Mn170   2.096       .  S
O165        C381   1.270   1_545  A
C166        C195   1.432       .  S
C166        O184   1.250       .  A
C167        C199   1.438       .  S
C167        O379   1.270       .  A
C167        O180   1.270       .  A
Mn168       O582   2.099       .  S
Mn168       O398   2.099       .  S
Mn168       O801   2.162       .  S
O169       Mn376   1.960       .  S
O169       Mn172   1.960       .  S
Mn170       O360   2.130   1_545  S
Mn170       O188   1.960       .  S
C171        C203   1.438       .  S
C171        O358   1.270       .  A
Mn172       O179   2.095       .  S
Mn172       O187   2.096       .  S
Mn172       O580   2.130   1_455  S
Mn172       O177   1.960       .  S
C173        C194   1.438       .  S
C173        O607   1.270       .  A
C173        O189   1.270       .  A
O174       Mn186   1.960       .  S
O174        C176   1.216       .  S
C176        C211   1.431       .  S
O177       Mn376   1.960       .  S
O178       Mn181   2.095       .  S
O179        C601   1.270   1_455  A
Mn181       O578   1.960   1_455  S
Mn181       O616   1.960   1_455  S
O182       Mn581   2.099   1_455  S
C183        C208   1.431       .  S
O184       Mn382   2.099   1_545  S
O185       Mn367   2.099   1_545  S
O185        C190   1.250       .  A
Mn186       O189   2.096       .  S
O187        C589   1.270   1_455  A
O188       Mn609   1.960       .  S
O188        C190   1.216       .  S
C190        C192   1.432       .  S
C191        C192   1.204       .  T
C193        C194   1.207       .  T
C195        C196   1.204       .  T
C197        C198   1.207       .  T
C199        C200   1.207       .  T
C201        C202   1.204       .  T
C203        C204   1.207       .  T
C205        C206   1.204       .  T
C207        C208   1.204       .  T
C209        C210   1.207       .  T
C211        C212   1.204       .  T
C213        C214   1.207       .  T
C215        N216   1.362       .  A
C215        N220   1.357       .  A
C215        C321   1.437       .  S
N216        C217   1.363       .  A
C217        N218   1.358       .  A
C217        C223   1.469       .  S
N218        C219   1.351       .  A
C219        N220   1.354       .  A
C219        C319   1.433       .  S
C221        N329   1.362       .  A
C221        N226   1.357       .  A
C221        C316   1.437       .  S
N222        C328   1.362   1_554  A
N222        C223   1.363       .  A
C223        N224   1.358       .  A
N224        C332   1.351   1_554  A
C225        N331   1.351       .  A
C225        N226   1.354       .  A
C225        C314   1.433       .  S
C227        N228   1.362       .  A
C227        N232   1.357       .  A
C227        C311   1.438       .  S
N228        C229   1.363       .  A
C229        N230   1.358       .  A
C229        C235   1.469       .  S
N230        C231   1.351       .  A
C231        N232   1.354       .  A
C231        C312   1.433       .  S
C233        N341   1.362       .  A
C233        N238   1.357       .  A
C233        C307   1.438       .  S
N234        C340   1.362   1_554  A
N234        C235   1.363       .  A
C235        N236   1.358       .  A
N236        C344   1.351   1_554  A
C237        N343   1.351       .  A
C237        N238   1.354       .  A
C237        C309   1.433       .  S
C239        N240   1.357       .  A
C239        N244   1.362       .  A
C239        C305   1.438       .  S
N240        C241   1.354       .  A
C241        N242   1.351       .  A
C241        C303   1.433       .  S
N242        C243   1.358       .  A
C243        N244   1.363       .  A
C243        C247   1.469       .  S
C245        N353   1.362       .  A
C245        N250   1.357       .  A
C245        C300   1.438       .  S
N246        C352   1.362   1_554  A
N246        C247   1.363       .  A
C247        N248   1.358       .  A
N248        C356   1.351   1_554  A
C249        N355   1.351       .  A
C249        N250   1.354       .  A
C249        C298   1.434       .  S
O251       Mn277   2.095       .  S
C252        C317   1.437       .  S
C252        O285   1.270       .  A
C252        O282   1.270       .  A
O253       Mn260   2.163       .  S
O253       Mn271   2.130       .  S
O253       Mn275   2.163       .  S
O254       Mn288   2.095       .  S
O254        C264   1.270       .  A
O255       Mn271   2.096       .  S
O255        C278   1.270       .  A
O256       Mn275   2.097       .  S
O256        C283   1.250       .  A
O257       Mn716   1.960       .  S
O257       Mn277   1.960       .  S
O257        C273   1.216       .  S
C258        C313   1.432       .  S
C258        O261   1.250       .  A
C258        O284   1.216       .  S
O259       Mn707   2.130       .  S
O259       Mn260   2.163       .  S
O259       Mn293   2.130       .  S
O259       Mn275   2.163       .  S
Mn260       O717   2.099       .  S
Mn260       O265   2.097       .  S
Mn260       O480   2.162   1_565  S
O261       Mn703   2.099   1_455  S
O262       Mn269   2.095       .  S
O262        C264   1.270       .  A
C263        C308   1.432       .  S
C263        O289   1.250       .  A
C263        O276   1.216       .  S
C264        C320   1.437       .  S
O265        C290   1.250       .  A
O266       Mn474   2.162   1_455  S
O266       Mn269   2.130       .  S
O266       Mn288   2.130       .  S
O266       Mn489   2.162   1_455  S
O267       Mn271   1.960       .  S
O267       Mn293   1.960       .  S
O267        C290   1.216       .  S
C268        C304   1.438       .  S
C268        O722   1.270       .  A
C268        O270   1.270       .  A
Mn269       O282   2.095       .  S
O270       Mn293   2.096       .  S
Mn271       O287   2.096       .  S
Mn271       O281   1.960       .  S
O272       Mn277   2.096       .  S
C273        C302   1.432       .  S
C273        O291   1.250       .  A
C274        C306   1.438       .  S
C274        O287   1.270       .  A
Mn275       O689   2.099       .  S
Mn275       O480   2.162   1_565  S
O276       Mn279   1.960       .  S
Mn277       O295   1.960       .  S
C278        C310   1.438       .  S
Mn279       O286   2.095       .  S
Mn279       O294   2.096       .  S
Mn279       O687   2.130   1_455  S
Mn279       O284   1.960       .  S
C280        C301   1.438       .  S
C280        O714   1.270       .  A
C280        O296   1.270       .  A
O281       Mn293   1.960       .  S
O281        C283   1.216       .  S
C283        C318   1.431       .  S
O285       Mn288   2.095       .  S
O286        C708   1.270   1_455  A
Mn288       O685   1.960   1_455  S
Mn288       O723   1.960   1_455  S
O289       Mn688   2.099   1_455  S
C290        C315   1.431       .  S
O292        C297   1.250       .  A
Mn293       O296   2.096       .  S
O294        C696   1.270   1_455  A
O295       Mn716   1.960       .  S
O295        C297   1.216       .  S
C297        C299   1.432       .  S
C298        C299   1.204       .  T
C300        C301   1.207       .  T
C302        C303   1.204       .  T
C304        C305   1.207       .  T
C306        C307   1.207       .  T
C308        C309   1.204       .  T
C310        C311   1.207       .  T
C312        C313   1.204       .  T
C314        C315   1.204       .  T
C316        C317   1.207       .  T
C318        C319   1.204       .  T
C320        C321   1.207       .  T
C322        N323   1.362       .  A
C322        N327   1.357       .  A
C322        C428   1.437       .  S
N323        C324   1.363       .  A
C324        N325   1.358       .  A
C324        C330   1.469       .  S
N325        C326   1.351       .  A
C326        N327   1.354       .  A
C326        C426   1.433       .  S
C328        N333   1.357       .  A
C328        C423   1.437       .  S
N329        C330   1.363       .  A
C330        N331   1.358       .  A
C332        N333   1.354       .  A
C332        C421   1.433       .  S
C334        N335   1.362       .  A
C334        N339   1.357       .  A
C334        C418   1.438       .  S
N335        C336   1.363       .  A
C336        N337   1.358       .  A
C336        C342   1.469       .  S
N337        C338   1.351       .  A
C338        N339   1.354       .  A
C338        C419   1.433       .  S
C340        N345   1.357       .  A
C340        C414   1.438       .  S
N341        C342   1.363       .  A
C342        N343   1.358       .  A
C344        N345   1.354       .  A
C344        C416   1.433       .  S
C346        N347   1.357       .  A
C346        N351   1.362       .  A
C346        C412   1.438       .  S
N347        C348   1.354       .  A
C348        N349   1.351       .  A
C348        C410   1.433       .  S
N349        C350   1.358       .  A
C350        N351   1.363       .  A
C350        C354   1.469       .  S
C352        N357   1.357       .  A
C352        C407   1.438       .  S
N353        C354   1.363       .  A
C354        N355   1.358       .  A
C356        N357   1.354       .  A
C356        C405   1.434       .  S
O358       Mn384   2.095       .  S
C359        C424   1.437       .  S
C359        O392   1.270       .  A
C359        O389   1.270       .  A
O360       Mn367   2.163       .  S
O360       Mn378   2.130       .  S
O360       Mn382   2.163       .  S
O361       Mn395   2.095       .  S
O361        C371   1.270       .  A
O362       Mn378   2.096       .  S
O362        C385   1.270       .  A
O363       Mn382   2.097       .  S
O363        C390   1.250       .  A
O364       Mn823   1.960       .  S
O364       Mn384   1.960       .  S
O364        C380   1.216       .  S
C365        C420   1.432       .  S
C365        O368   1.250       .  A
C365        O391   1.216       .  S
O366       Mn814   2.130       .  S
O366       Mn367   2.163       .  S
O366       Mn400   2.130       .  S
O366       Mn382   2.163       .  S
Mn367       O824   2.099       .  S
Mn367       O372   2.097       .  S
Mn367       O587   2.162   1_565  S
O368       Mn810   2.099   1_455  S
O369       Mn376   2.095       .  S
O369        C371   1.270       .  A
C370        C415   1.432       .  S
C370        O396   1.250       .  A
C370        O383   1.216       .  S
C371        C427   1.437       .  S
O372        C397   1.250       .  A
O373       Mn581   2.162   1_455  S
O373       Mn376   2.130       .  S
O373       Mn395   2.130       .  S
O373       Mn596   2.162   1_455  S
O374       Mn378   1.960       .  S
O374       Mn400   1.960       .  S
O374        C397   1.216       .  S
C375        C411   1.438       .  S
C375        O829   1.270       .  A
C375        O377   1.270       .  A
Mn376       O389   2.095       .  S
O377       Mn400   2.096       .  S
Mn378       O394   2.096       .  S
Mn378       O388   1.960       .  S
O379       Mn384   2.096       .  S
C380        C409   1.432       .  S
C380        O398   1.250       .  A
C381        C413   1.438       .  S
C381        O394   1.270       .  A
Mn382       O796   2.099       .  S
Mn382       O587   2.162   1_565  S
O383       Mn386   1.960       .  S
Mn384       O402   1.960       .  S
C385        C417   1.438       .  S
Mn386       O393   2.095       .  S
Mn386       O401   2.096       .  S
Mn386       O794   2.130   1_455  S
Mn386       O391   1.960       .  S
C387        C408   1.438       .  S
C387        O821   1.270       .  A
C387        O403   1.270       .  A
O388       Mn400   1.960       .  S
O388        C390   1.216       .  S
C390        C425   1.431       .  S
O392       Mn395   2.095       .  S
O393        C815   1.270   1_455  A
Mn395       O792   1.960   1_455  S
Mn395       O830   1.960   1_455  S
O396       Mn795   2.099   1_455  S
C397        C422   1.431       .  S
O399        C404   1.250       .  A
Mn400       O403   2.096       .  S
O401        C803   1.270   1_455  A
O402       Mn823   1.960       .  S
O402        C404   1.216       .  S
C404        C406   1.432       .  S
C405        C406   1.204       .  T
C407        C408   1.207       .  T
C409        C410   1.204       .  T
C411        C412   1.207       .  T
C413        C414   1.207       .  T
C415        C416   1.204       .  T
C417        C418   1.207       .  T
C419        C420   1.204       .  T
C421        C422   1.204       .  T
C423        C424   1.207       .  T
C425        C426   1.204       .  T
C427        C428   1.207       .  T
C429        N430   1.362       .  A
C429        N434   1.357       .  A
C429        C535   1.437       .  S
N430        C431   1.363       .  A
C431        N432   1.358       .  A
C431        C437   1.469       .  S
N432        C433   1.351       .  A
C433        N434   1.354       .  A
C433        C533   1.433       .  S
C435        N543   1.362       .  A
C435        N440   1.357       .  A
C435        C530   1.437       .  S
N436        C542   1.362   1_554  A
N436        C437   1.363       .  A
C437        N438   1.358       .  A
N438        C546   1.351   1_554  A
C439        N545   1.351       .  A
C439        N440   1.354       .  A
C439        C528   1.433       .  S
C441        N442   1.362       .  A
C441        N446   1.357       .  A
C441        C525   1.438       .  S
N442        C443   1.363       .  A
C443        N444   1.358       .  A
C443        C449   1.469       .  S
N444        C445   1.351       .  A
C445        N446   1.354       .  A
C445        C526   1.433       .  S
C447        N555   1.362       .  A
C447        N452   1.357       .  A
C447        C521   1.438       .  S
N448        C554   1.362   1_554  A
N448        C449   1.363       .  A
C449        N450   1.358       .  A
N450        C558   1.351   1_554  A
C451        N557   1.351       .  A
C451        N452   1.354       .  A
C451        C523   1.433       .  S
C453        N454   1.357       .  A
C453        N458   1.362       .  A
C453        C519   1.438       .  S
N454        C455   1.354       .  A
C455        N456   1.351       .  A
C455        C517   1.433       .  S
N456        C457   1.358       .  A
C457        N458   1.363       .  A
C457        C461   1.469       .  S
C459        N567   1.362       .  A
C459        N464   1.357       .  A
C459        C514   1.438       .  S
N460        C566   1.362   1_554  A
N460        C461   1.363       .  A
C461        N462   1.358       .  A
N462        C570   1.351   1_554  A
C463        N569   1.351       .  A
C463        N464   1.354       .  A
C463        C512   1.434       .  S
O465       Mn491   2.095       .  S
O465        C706   1.270   1_545  A
C466        C531   1.437       .  S
C466        O499   1.270       .  A
C466        O496   1.270       .  A
O467       Mn474   2.163       .  S
O467       Mn485   2.130       .  S
O467       Mn489   2.163       .  S
O467       Mn705   2.130       .  S
O468       Mn502   2.095       .  S
O468        C478   1.270       .  A
O469       Mn485   2.096       .  S
O469        C492   1.270       .  A
O470       Mn489   2.097       .  S
O470        C497   1.250       .  A
O471       Mn491   1.960       .  S
O471        C487   1.216       .  S
C472        C527   1.432       .  S
C472        O475   1.250       .  A
C472        O498   1.216       .  S
O473       Mn474   2.163       .  S
O473       Mn507   2.130       .  S
O473       Mn489   2.163       .  S
Mn474       O479   2.097       .  S
Mn474       O720   2.099       .  S
O476       Mn483   2.095       .  S
O476        C478   1.270       .  A
C477        C522   1.432       .  S
C477        O503   1.250       .  A
C477        O490   1.216       .  S
C478        C534   1.437       .  S
O479        C504   1.250       .  A
O480       Mn483   2.130       .  S
O480       Mn502   2.130       .  S
O481       Mn485   1.960       .  S
O481       Mn507   1.960       .  S
O481        C504   1.216       .  S
C482        C518   1.438       .  S
C482        O484   1.270       .  A
Mn483       O496   2.095       .  S
Mn483       O712   1.960   1_545  S
Mn483       O704   1.960   1_545  S
O484       Mn507   2.096       .  S
Mn485       O501   2.096       .  S
Mn485       O495   1.960       .  S
O486       Mn491   2.096       .  S
O486        C702   1.270   1_545  A
C487        C516   1.432       .  S
C487        O505   1.250       .  A
C488        C520   1.438       .  S
C488        O700   1.270       .  A
C488        O501   1.270       .  A
Mn489       O719   2.099       .  S
O490       Mn697   1.960       .  S
O490       Mn493   1.960       .  S
Mn491       O681   2.130   1_545  S
Mn491       O509   1.960       .  S
C492        C524   1.438       .  S
C492        O679   1.270       .  A
Mn493       O500   2.095       .  S
Mn493       O508   2.096       .  S
Mn493       O498   1.960       .  S
C494        C515   1.438       .  S
C494        O510   1.270       .  A
O495       Mn507   1.960       .  S
O495        C497   1.216       .  S
C497        C532   1.431       .  S
O498       Mn697   1.960       .  S
O499       Mn502   2.095       .  S
C504        C529   1.431       .  S
O505       Mn703   2.099   1_545  S
O506       Mn688   2.099   1_545  S
O506        C511   1.250       .  A
Mn507       O510   2.096       .  S
O509        C511   1.216       .  S
C511        C513   1.432       .  S
C512        C513   1.204       .  T
C514        C515   1.207       .  T
C516        C517   1.204       .  T
C518        C519   1.207       .  T
C520        C521   1.207       .  T
C522        C523   1.204       .  T
C524        C525   1.207       .  T
C526        C527   1.204       .  T
C528        C529   1.204       .  T
C530        C531   1.207       .  T
C532        C533   1.204       .  T
C534        C535   1.207       .  T
C536        N537   1.362       .  A
C536        N541   1.357       .  A
C536        C642   1.437       .  S
N537        C538   1.363       .  A
C538        N539   1.358       .  A
C538        C544   1.469       .  S
N539        C540   1.351       .  A
C540        N541   1.354       .  A
C540        C640   1.433       .  S
C542        N547   1.357       .  A
C542        C637   1.437       .  S
N543        C544   1.363       .  A
C544        N545   1.358       .  A
C546        N547   1.354       .  A
C546        C635   1.433       .  S
C548        N549   1.362       .  A
C548        N553   1.357       .  A
C548        C632   1.438       .  S
N549        C550   1.363       .  A
C550        N551   1.358       .  A
C550        C556   1.469       .  S
N551        C552   1.351       .  A
C552        N553   1.354       .  A
C552        C633   1.433       .  S
C554        N559   1.357       .  A
C554        C628   1.438       .  S
N555        C556   1.363       .  A
C556        N557   1.358       .  A
C558        N559   1.354       .  A
C558        C630   1.433       .  S
C560        N561   1.357       .  A
C560        N565   1.362       .  A
C560        C626   1.438       .  S
N561        C562   1.354       .  A
C562        N563   1.351       .  A
C562        C624   1.433       .  S
N563        C564   1.358       .  A
C564        N565   1.363       .  A
C564        C568   1.469       .  S
C566        N571   1.357       .  A
C566        C621   1.438       .  S
N567        C568   1.363       .  A
C568        N569   1.358       .  A
C570        N571   1.354       .  A
C570        C619   1.434       .  S
O572       Mn598   2.095       .  S
O572        C813   1.270   1_545  A
C573        C638   1.437       .  S
C573        O606   1.270       .  A
C573        O603   1.270       .  A
O574       Mn581   2.163       .  S
O574       Mn592   2.130       .  S
O574       Mn596   2.163       .  S
O574       Mn812   2.130       .  S
O575       Mn609   2.095       .  S
O575        C585   1.270       .  A
O576       Mn592   2.096       .  S
O576        C599   1.270       .  A
O577       Mn596   2.097       .  S
O577        C604   1.250       .  A
O578       Mn598   1.960       .  S
O578        C594   1.216       .  S
C579        C634   1.432       .  S
C579        O582   1.250       .  A
C579        O605   1.216       .  S
O580       Mn581   2.163       .  S
O580       Mn614   2.130       .  S
O580       Mn596   2.163       .  S
Mn581       O586   2.097       .  S
Mn581       O827   2.099       .  S
O583       Mn590   2.095       .  S
O583        C585   1.270       .  A
C584        C629   1.432       .  S
C584        O610   1.250       .  A
C584        O597   1.216       .  S
C585        C641   1.437       .  S
O586        C611   1.250       .  A
O587       Mn590   2.130       .  S
O587       Mn609   2.130       .  S
O588       Mn592   1.960       .  S
O588       Mn614   1.960       .  S
O588        C611   1.216       .  S
C589        C625   1.438       .  S
C589        O591   1.270       .  A
Mn590       O603   2.095       .  S
Mn590       O819   1.960   1_545  S
Mn590       O811   1.960   1_545  S
O591       Mn614   2.096       .  S
Mn592       O608   2.096       .  S
Mn592       O602   1.960       .  S
O593       Mn598   2.096       .  S
O593        C809   1.270   1_545  A
C594        C623   1.432       .  S
C594        O612   1.250       .  A
C595        C627   1.438       .  S
C595        O807   1.270       .  A
C595        O608   1.270       .  A
Mn596       O826   2.099       .  S
O597       Mn804   1.960       .  S
O597       Mn600   1.960       .  S
Mn598       O788   2.130   1_545  S
Mn598       O616   1.960       .  S
C599        C631   1.438       .  S
C599        O786   1.270       .  A
Mn600       O607   2.095       .  S
Mn600       O615   2.096       .  S
Mn600       O605   1.960       .  S
C601        C622   1.438       .  S
C601        O617   1.270       .  A
O602       Mn614   1.960       .  S
O602        C604   1.216       .  S
C604        C639   1.431       .  S
O605       Mn804   1.960       .  S
O606       Mn609   2.095       .  S
C611        C636   1.431       .  S
O612       Mn810   2.099   1_545  S
O613       Mn795   2.099   1_545  S
O613        C618   1.250       .  A
Mn614       O617   2.096       .  S
O616        C618   1.216       .  S
C618        C620   1.432       .  S
C619        C620   1.204       .  T
C621        C622   1.207       .  T
C623        C624   1.204       .  T
C625        C626   1.207       .  T
C627        C628   1.207       .  T
C629        C630   1.204       .  T
C631        C632   1.207       .  T
C633        C634   1.204       .  T
C635        C636   1.204       .  T
C637        C638   1.207       .  T
C639        C640   1.204       .  T
C641        C642   1.207       .  T
C643        N644   1.362       .  A
C643        N648   1.357       .  A
C643        C749   1.437       .  S
N644        C645   1.363       .  A
C645        N646   1.358       .  A
C645        C651   1.469       .  S
N646        C647   1.351       .  A
C647        N648   1.354       .  A
C647        C747   1.433       .  S
C649        N757   1.362       .  A
C649        N654   1.357       .  A
C649        C744   1.437       .  S
N650        C756   1.362   1_554  A
N650        C651   1.363       .  A
C651        N652   1.358       .  A
N652        C760   1.351   1_554  A
C653        N759   1.351       .  A
C653        N654   1.354       .  A
C653        C742   1.433       .  S
C655        N656   1.362       .  A
C655        N660   1.357       .  A
C655        C739   1.438       .  S
N656        C657   1.363       .  A
C657        N658   1.358       .  A
C657        C663   1.469       .  S
N658        C659   1.351       .  A
C659        N660   1.354       .  A
C659        C740   1.433       .  S
C661        N769   1.362       .  A
C661        N666   1.357       .  A
C661        C735   1.438       .  S
N662        C768   1.362   1_554  A
N662        C663   1.363       .  A
C663        N664   1.358       .  A
N664        C772   1.351   1_554  A
C665        N771   1.351       .  A
C665        N666   1.354       .  A
C665        C737   1.433       .  S
C667        N668   1.357       .  A
C667        N672   1.362       .  A
C667        C733   1.438       .  S
N668        C669   1.354       .  A
C669        N670   1.351       .  A
C669        C731   1.433       .  S
N670        C671   1.358       .  A
C671        N672   1.363       .  A
C671        C675   1.469       .  S
C673        N781   1.362       .  A
C673        N678   1.357       .  A
C673        C728   1.438       .  S
N674        C780   1.362   1_554  A
N674        C675   1.363       .  A
C675        N676   1.358       .  A
N676        C784   1.351   1_554  A
C677        N783   1.351       .  A
C677        N678   1.354       .  A
C677        C726   1.434       .  S
O679       Mn705   2.095       .  S
C680        C745   1.437       .  S
C680        O713   1.270       .  A
C680        O710   1.270       .  A
O681       Mn688   2.163       .  S
O681       Mn699   2.130       .  S
O681       Mn703   2.163       .  S
O682       Mn716   2.095       .  S
O682        C692   1.270       .  A
O683       Mn699   2.096       .  S
O683        C706   1.270       .  A
O684       Mn703   2.097       .  S
O684        C711   1.250       .  A
O685       Mn705   1.960       .  S
O685        C701   1.216       .  S
C686        C741   1.432       .  S
C686        O689   1.250       .  A
C686        O712   1.216       .  S
O687       Mn688   2.163       .  S
O687       Mn721   2.130       .  S
O687       Mn703   2.163       .  S
Mn688       O693   2.097       .  S
O690       Mn697   2.095       .  S
O690        C692   1.270       .  A
C691        C736   1.432       .  S
C691        O717   1.250       .  A
C691        O704   1.216       .  S
C692        C748   1.437       .  S
O693        C718   1.250       .  A
O694       Mn697   2.130       .  S
O694       Mn716   2.130       .  S
O695       Mn699   1.960       .  S
O695       Mn721   1.960       .  S
O695        C718   1.216       .  S
C696        C732   1.438       .  S
C696        O698   1.270       .  A
Mn697       O710   2.095       .  S
O698       Mn721   2.096       .  S
Mn699       O715   2.096       .  S
Mn699       O709   1.960       .  S
O700       Mn705   2.096       .  S
C701        C730   1.432       .  S
C701        O719   1.250       .  A
C702        C734   1.438       .  S
C702        O715   1.270       .  A
O704       Mn707   1.960       .  S
Mn705       O723   1.960       .  S
C706        C738   1.438       .  S
Mn707       O714   2.095       .  S
Mn707       O722   2.096       .  S
Mn707       O712   1.960       .  S
C708        C729   1.438       .  S
C708        O724   1.270       .  A
O709       Mn721   1.960       .  S
O709        C711   1.216       .  S
C711        C746   1.431       .  S
O713       Mn716   2.095       .  S
C718        C743   1.431       .  S
O720        C725   1.250       .  A
Mn721       O724   2.096       .  S
O723        C725   1.216       .  S
C725        C727   1.432       .  S
C726        C727   1.204       .  T
C728        C729   1.207       .  T
C730        C731   1.204       .  T
C732        C733   1.207       .  T
C734        C735   1.207       .  T
C736        C737   1.204       .  T
C738        C739   1.207       .  T
C740        C741   1.204       .  T
C742        C743   1.204       .  T
C744        C745   1.207       .  T
C746        C747   1.204       .  T
C748        C749   1.207       .  T
C750        N751   1.362       .  A
C750        N755   1.357       .  A
C750        C856   1.437       .  S
N751        C752   1.363       .  A
C752        N753   1.358       .  A
C752        C758   1.469       .  S
N753        C754   1.351       .  A
C754        N755   1.354       .  A
C754        C854   1.433       .  S
C756        N761   1.357       .  A
C756        C851   1.437       .  S
N757        C758   1.363       .  A
C758        N759   1.358       .  A
C760        N761   1.354       .  A
C760        C849   1.433       .  S
C762        N763   1.362       .  A
C762        N767   1.357       .  A
C762        C846   1.438       .  S
N763        C764   1.363       .  A
C764        N765   1.358       .  A
C764        C770   1.469       .  S
N765        C766   1.351       .  A
C766        N767   1.354       .  A
C766        C847   1.433       .  S
C768        N773   1.357       .  A
C768        C842   1.438       .  S
N769        C770   1.363       .  A
C770        N771   1.358       .  A
C772        N773   1.354       .  A
C772        C844   1.433       .  S
C774        N775   1.357       .  A
C774        N779   1.362       .  A
C774        C840   1.438       .  S
N775        C776   1.354       .  A
C776        N777   1.351       .  A
C776        C838   1.433       .  S
N777        C778   1.358       .  A
C778        N779   1.363       .  A
C778        C782   1.469       .  S
C780        N785   1.357       .  A
C780        C835   1.438       .  S
N781        C782   1.363       .  A
C782        N783   1.358       .  A
C784        N785   1.354       .  A
C784        C833   1.434       .  S
O786       Mn812   2.095       .  S
C787        C852   1.437       .  S
C787        O820   1.270       .  A
C787        O817   1.270       .  A
O788       Mn795   2.163       .  S
O788       Mn806   2.130       .  S
O788       Mn810   2.163       .  S
O789       Mn823   2.095       .  S
O789        C799   1.270       .  A
O790       Mn806   2.096       .  S
O790        C813   1.270       .  A
O791       Mn810   2.097       .  S
O791        C818   1.250       .  A
O792       Mn812   1.960       .  S
O792        C808   1.216       .  S
C793        C848   1.432       .  S
C793        O796   1.250       .  A
C793        O819   1.216       .  S
O794       Mn795   2.163       .  S
O794       Mn828   2.130       .  S
O794       Mn810   2.163       .  S
Mn795       O800   2.097       .  S
O797       Mn804   2.095       .  S
O797        C799   1.270       .  A
C798        C843   1.432       .  S
C798        O824   1.250       .  A
C798        O811   1.216       .  S
C799        C855   1.437       .  S
O800        C825   1.250       .  A
O801       Mn804   2.130       .  S
O801       Mn823   2.130       .  S
O802       Mn806   1.960       .  S
O802       Mn828   1.960       .  S
O802        C825   1.216       .  S
C803        C839   1.438       .  S
C803        O805   1.270       .  A
Mn804       O817   2.095       .  S
O805       Mn828   2.096       .  S
Mn806       O822   2.096       .  S
Mn806       O816   1.960       .  S
O807       Mn812   2.096       .  S
C808        C837   1.432       .  S
C808        O826   1.250       .  A
C809        C841   1.438       .  S
C809        O822   1.270       .  A
O811       Mn814   1.960       .  S
Mn812       O830   1.960       .  S
C813        C845   1.438       .  S
Mn814       O821   2.095       .  S
Mn814       O829   2.096       .  S
Mn814       O819   1.960       .  S
C815        C836   1.438       .  S
C815        O831   1.270       .  A
O816       Mn828   1.960       .  S
O816        C818   1.216       .  S
C818        C853   1.431       .  S
O820       Mn823   2.095       .  S
C825        C850   1.431       .  S
O827        C832   1.250       .  A
Mn828       O831   2.096       .  S
O830        C832   1.216       .  S
C832        C834   1.432       .  S
C833        C834   1.204       .  T
C835        C836   1.207       .  T
C837        C838   1.204       .  T
C839        C840   1.207       .  T
C841        C842   1.207       .  T
C843        C844   1.204       .  T
C845        C846   1.207       .  T
C847        C848   1.204       .  T
C849        C850   1.204       .  T
C851        C852   1.207       .  T
C853        C854   1.204       .  T
C855        C856   1.207       .  T
