geometry optimzed in LAMMPS
_audit_creation_date              2020-11-30 
_audit_creation_method            'lammps2cif' 
_symmetry_space_group_name_H-M    'P1' 
_symmetry_Int_Tables_number       1 
_symmetry_cell_setting            triclinic 
loop_ 
_symmetry_equiv_pos_as_xyz 
  x,y,z 
_cell_length_a                    44.28156345 
_cell_length_b                    44.28829277778319 
_cell_length_c                    58.106396046996075 
_cell_angle_alpha                 89.97656453957455 
_cell_angle_beta                  90.00740626669673 
_cell_angle_gamma                 89.98362933453159 
loop_ 
_atom_site_label 
_atom_site_type_symbol 
_atom_site_fract_x 
_atom_site_fract_y 
_atom_site_fract_z 
_atom_site_charge 
O1          O  0.46884376  0.00272430  0.13270913    -0.73500
O2          O  0.48022513  0.50519378  0.20085479    -0.74500
O3          O  0.47560312  0.04940983  0.16600005    -0.63100
O4          O  0.47529523  0.45803447  0.16755918    -0.71500
O5          O  0.02080330  0.45885708  0.16055845    -0.71100
O6          O  0.02209913  0.04890591  0.15954504    -0.62300
O7          O  0.02594348  0.50432512  0.19462590    -0.74800
O8          O  0.01558702  0.00318359  0.12552595    -0.73600
Cu9        Cu  0.47326927  0.00383505  0.16695155     1.04600
Cu10       Cu  0.02273069  0.50381358  0.15991466     1.04300
C11         C  0.98888121  0.00272911  0.11704767     0.92700
C12         C  0.50656796  0.50469781  0.20970886     0.91800
C13         C  0.99751566  0.06381792  0.16107983     0.84000
C14         C  0.99609064  0.44448474  0.16327733     0.90300
O15         O  0.47674159  0.25250523  0.19741137    -0.73500
O16         O  0.48644076  0.25364670  0.12839636    -0.74500
O17         O  0.48118777  0.20842501  0.16261067    -0.63100
O18         O  0.48059267  0.29831641  0.16320622    -0.71500
O19         O  0.02501363  0.29986134  0.16500325    -0.71100
O20         O  0.02604992  0.20868436  0.16481266    -0.62300
O21         O  0.02935121  0.25441825  0.13066333    -0.74800
O22         O  0.02288550  0.25438605  0.19934659    -0.73600
Cu23       Cu  0.47954719  0.25326520  0.16273959     1.04600
Cu24       Cu  0.02758047  0.25437466  0.16507216     1.04300
C25         C  0.50046178  0.25334604  0.20995814     0.92700
C26         C  0.00548688  0.25458297  0.11838780     0.91800
C27         C  0.50583956  0.19383524  0.16483453     0.84000
C28         C  0.50517905  0.31320338  0.16469718     0.90300
O29         O  0.23589627  0.99636720  0.12777739    -0.73500
O30         O  0.23168394  0.99498045  0.19674701    -0.74500
O31         O  0.23343960  0.04059900  0.16284333    -0.63100
O32         O  0.23349543  0.45032870  0.16165818    -0.71500
O33         O  0.28354514  0.44991609  0.16266755    -0.71100
O34         O  0.28341659  0.04080805  0.16511729    -0.62300
O35         O  0.28175024  0.99334556  0.19842622    -0.74800
O36         O  0.28595716  0.99695446  0.12935109    -0.73600
Cu37       Cu  0.23195687  0.99553556  0.16219395     1.04600
Cu38       Cu  0.28547912  0.99527379  0.16395776     1.04300
C39         C  0.26154325  0.99712639  0.11766654     0.92700
C40         C  0.25608189  0.99380600  0.20845992     0.91800
C41         C  0.25829162  0.05507674  0.16425768     0.84000
C42         C  0.25839152  0.43575306  0.16203398     0.90300
O43         O  0.23166968  0.24524992  0.12930805    -0.73500
O44         O  0.22962797  0.24650472  0.19843371    -0.74500
O45         O  0.23110339  0.29103613  0.16331587    -0.63100
O46         O  0.23088857  0.20010564  0.16438275    -0.71500
O47         O  0.28095351  0.20022539  0.16456450    -0.71100
O48         O  0.28111180  0.29049964  0.16517628    -0.62300
O49         O  0.27971784  0.24443130  0.19947476    -0.74800
O50         O  0.28177686  0.24588386  0.13033788    -0.73600
Cu51       Cu  0.22904817  0.24569260  0.16384239     1.04600
Cu52       Cu  0.28260778  0.24527492  0.16492399     1.04300
C53         C  0.25710011  0.24584536  0.11893708     0.92700
C54         C  0.25426979  0.24531798  0.20982704     0.91800
C55         C  0.25628932  0.30513414  0.16402928     0.84000
C56         C  0.25601031  0.18578600  0.16457757     0.90300
O57         O  0.04855811  0.47476673  0.35125196    -0.73500
O58         O  0.45773838  0.47514458  0.35114975    -0.74500
O59         O  0.50606322  0.47719617  0.31850496    -0.63100
O60         O  0.50101559  0.47170462  0.38719182    -0.71500
O61         O  0.50182785  0.02179010  0.38943329    -0.71100
O62         O  0.50474597  0.02745764  0.32039494    -0.62300
O63         O  0.45817363  0.02522295  0.35376028    -0.74800
O64         O  0.04814250  0.02492789  0.35383605    -0.73600
Cu65       Cu  0.50330311  0.47291464  0.35278893     1.04600
Cu66       Cu  0.50325411  0.02655670  0.35498737     1.04300
C67         C  0.06264269  0.49990018  0.35277458     0.92700
C68         C  0.44351051  0.50029202  0.35212609     0.91800
C69         C  0.50623109  0.50293737  0.30859219     0.84000
C70         C  0.50102173  0.49580870  0.39918789     0.90300
O71         O  0.49820907  0.26693935  0.32156400    -0.73500
O72         O  0.49797154  0.25742860  0.39027592    -0.74500
O73         O  0.04343702  0.26271869  0.35488101    -0.63100
O74         O  0.45257822  0.26195310  0.35586797    -0.71500
O75         O  0.45267446  0.21204445  0.35288338    -0.71100
O76         O  0.04281251  0.21296320  0.35073928    -0.62300
O77         O  0.49904339  0.20759011  0.38644030    -0.74800
O78         O  0.49631369  0.21711460  0.31757904    -0.73600
Cu79       Cu  0.49795450  0.26385400  0.35606544     1.04600
Cu80       Cu  0.49784216  0.21057825  0.35186614     1.04300
C81         C  0.49702109  0.24354412  0.30874736     0.92700
C82         C  0.49875087  0.23105895  0.39921187     0.91800
C83         C  0.05750674  0.23767603  0.35275322     0.84000
C84         C  0.43826011  0.23694492  0.35447328     0.90300
O85         O  0.25299319  0.48364245  0.38922585    -0.73500
O86         O  0.25378303  0.47342894  0.32007390    -0.74500
O87         O  0.29831900  0.47833686  0.35475987    -0.63100
O88         O  0.20806064  0.47774394  0.35450439    -0.71500
O89         O  0.20745359  0.02776533  0.35147428    -0.71100
O90         O  0.29851024  0.02806958  0.34971731    -0.62300
O91         O  0.25155711  0.02341733  0.31642837    -0.74800
O92         O  0.25388161  0.03348103  0.38466867    -0.73600
Cu93       Cu  0.25328404  0.47653571  0.35480637     1.04600
Cu94       Cu  0.25286945  0.02990036  0.35042448     1.04300
C95         C  0.25333808  0.51031512  0.39773731     0.92700
C96         C  0.25251384  0.49703194  0.30740890     0.91800
C97         C  0.31273519  0.50303610  0.35205692     0.84000
C98         C  0.19331390  0.50246270  0.35307201     0.90300
O99         O  0.24705939  0.20810496  0.38736301    -0.73500
O100        O  0.24950875  0.21411430  0.31856714    -0.74500
O101        O  0.29334377  0.21112872  0.35377461    -0.63100
O102        O  0.20261892  0.21144921  0.35213760    -0.71500
O103        O  0.20268192  0.26131199  0.35548330    -0.71100
O104        O  0.29316493  0.26114471  0.35542422    -0.62300
O105        O  0.24773865  0.26411913  0.32084087    -0.74800
O106        O  0.24803170  0.25808814  0.39002327    -0.73600
Cu107      Cu  0.24806660  0.20946852  0.35287773     1.04600
Cu108      Cu  0.24788722  0.26291626  0.35553644     1.04300
C109        C  0.24759905  0.23205456  0.39956162     0.92700
C110        C  0.24908153  0.23997152  0.30883035     0.91800
C111        C  0.30762175  0.23618147  0.35468119     0.84000
C112        C  0.18826793  0.23644062  0.35367907     0.90300
O113        O  0.50177656  0.04009898  0.47485931    -0.73500
O114        O  0.50186252  0.03810367  0.54346490    -0.74500
O115        O  0.04696175  0.02623214  0.50946891    -0.63100
O116        O  0.45621455  0.03910311  0.50912941    -0.71500
O117        O  0.45650217  0.48924053  0.50839951    -0.71100
O118        O  0.04735285  0.47656917  0.50509143    -0.62300
O119        O  0.50128104  0.48823875  0.54324574    -0.74800
O120        O  0.50141422  0.49014644  0.47373360    -0.73600
Cu121      Cu  0.50187121  0.04055041  0.50916812     1.04600
Cu122      Cu  0.50141956  0.48719915  0.50844265     1.04300
C123        C  0.50157965  0.51570460  0.46342778     0.92700
C124        C  0.50140704  0.01301974  0.55422935     0.91800
C125        C  0.06157436  0.50150014  0.50747316     0.84000
C126        C  0.44202720  0.51415653  0.50867771     0.90300
O127        O  0.50019688  0.22187555  0.47348482    -0.73500
O128        O  0.50045832  0.21518465  0.54258142    -0.74500
O129        O  0.45501801  0.21846048  0.50808542    -0.63100
O130        O  0.04565823  0.21978741  0.50707072    -0.71500
O131        O  0.04544678  0.26964593  0.51044593    -0.71100
O132        O  0.45502515  0.26840946  0.51068525    -0.62300
O133        O  0.50031881  0.26518016  0.54513568    -0.74800
O134        O  0.50029556  0.27184684  0.47638846    -0.73600
Cu135      Cu  0.50031262  0.21676123  0.50794275     1.04600
Cu136      Cu  0.50026156  0.27020024  0.51087164     1.04300
C137        C  0.50016026  0.24798738  0.46407343     0.92700
C138        C  0.50058389  0.23921389  0.55473247     0.91800
C139        C  0.44066022  0.24344843  0.50933025     0.84000
C140        C  0.05993660  0.24477702  0.50878654     0.90300
O141        O  0.20752134  0.47970941  0.51082476    -0.73500
O142        O  0.29821407  0.48408486  0.51054954    -0.74500
O143        O  0.25286575  0.48791620  0.54481419    -0.63100
O144        O  0.25306902  0.47518695  0.47666119    -0.71500
O145        O  0.25121435  0.02475062  0.47133831    -0.71100
O146        O  0.25048207  0.03746951  0.54010570    -0.62300
O147        O  0.29593738  0.03361358  0.50577059    -0.74800
O148        O  0.20564063  0.02922525  0.50567625    -0.73600
Cu149      Cu  0.25299653  0.48002349  0.51090693     1.04600
Cu150      Cu  0.25070725  0.03300343  0.50552120     1.04300
C151        C  0.19225254  0.50399252  0.50825266     0.92700
C152        C  0.31146050  0.50956218  0.50814135     0.91800
C153        C  0.25168669  0.01440917  0.55330612     0.84000
C154        C  0.25232984  0.49791106  0.46319111     0.90300
O155        O  0.25035021  0.27342745  0.47671203    -0.73500
O156        O  0.25057753  0.26546545  0.54546145    -0.74500
O157        O  0.29581247  0.26903749  0.51094493    -0.63100
O158        O  0.20515762  0.26971968  0.51121536    -0.71500
O159        O  0.20495208  0.21983854  0.50800214    -0.71100
O160        O  0.29550836  0.21913574  0.50790821    -0.62300
O161        O  0.25025688  0.21551977  0.54245213    -0.74800
O162        O  0.25007809  0.22349371  0.47351306    -0.73600
Cu163      Cu  0.25050912  0.27114100  0.51121175     1.04600
Cu164      Cu  0.25020332  0.21775597  0.50785413     1.04300
C165        C  0.25004589  0.24969900  0.46425378     0.92700
C166        C  0.25035048  0.23934075  0.55482787     0.91800
C167        C  0.31002995  0.24399666  0.50936476     0.84000
C168        C  0.19067948  0.24484114  0.50958720     0.90300
O169        O  0.02026368  0.45484480  0.00539167    -0.73500
O170        O  0.02003958  0.04609623  0.00434074    -0.74500
O171        O  0.02542315  0.00120699  0.03885774    -0.63100
O172        O  0.01623386  0.99965588  0.97068455    -0.71500
O173        O  0.47958690  0.00177510  0.97385695    -0.71100
O174        O  0.48086479  0.00080869  0.04422109    -0.62300
O175        O  0.47865723  0.04599831  0.00945739    -0.74800
O176        O  0.47884765  0.45653524  0.00866731    -0.73600
Cu177      Cu  0.02218327  0.00046690  0.00466427     1.04600
Cu178      Cu  0.47772019  0.00126703  0.00906655     1.04300
C179        C  0.99510282  0.44079724  0.00725310     0.92700
C180        C  0.99488380  0.06017108  0.00619305     0.91800
C181        C  0.00219101  0.00143843  0.05177864     0.84000
C182        C  0.99012932  0.99929628  0.96138681     0.90300
O183        O  0.46798843  0.25061860  0.97560170    -0.73500
O184        O  0.46999959  0.25209896  0.04369398    -0.74500
O185        O  0.47050203  0.29724664  0.00902876    -0.63100
O186        O  0.47022393  0.20543930  0.01019525    -0.71500
O187        O  0.01586223  0.20544620  0.00950909    -0.71100
O188        O  0.01595140  0.29546939  0.00865990    -0.62300
O189        O  0.01329306  0.25121500  0.04391131    -0.74800
O190        O  0.01727666  0.24976801  0.97435500    -0.73600
Cu191      Cu  0.46794376  0.25135617  0.00966852     1.04600
Cu192      Cu  0.01734533  0.25046601  0.00919418     1.04300
C193        C  0.99248433  0.24955109  0.96301587     0.92700
C194        C  0.98742598  0.25152082  0.05378143     0.91800
C195        C  0.99118103  0.31015478  0.00782697     0.84000
C196        C  0.99107962  0.19079690  0.00862691     0.90300
O197        O  0.21311981  0.00021703  0.04356519    -0.73500
O198        O  0.20915484  0.00119419  0.97502587    -0.74500
O199        O  0.21171840  0.45510199  0.00896298    -0.63100
O200        O  0.21210505  0.04632331  0.00961735    -0.71500
O201        O  0.26213409  0.04554541  0.00824515    -0.71100
O202        O  0.26174619  0.45557337  0.00753436    -0.62300
O203        O  0.25921074  0.00107737  0.97306796    -0.74800
O204        O  0.26323739  0.99995193  0.04263274    -0.73600
Cu205      Cu  0.20977170  0.00072261  0.00935863     1.04600
Cu206      Cu  0.26331361  0.00053073  0.00778833     1.04300
C207        C  0.23844897  0.99980765  0.05397789     0.92700
C208        C  0.23335360  0.00132733  0.96316785     0.91800
C209        C  0.23693961  0.44096281  0.00831573     0.84000
C210        C  0.23741260  0.06030523  0.00906968     0.90300
O211        O  0.21263903  0.24993965  0.04230196    -0.73500
O212        O  0.22181628  0.25109350  0.97302635    -0.74500
O213        O  0.21677962  0.20557966  0.00731342    -0.63100
O214        O  0.21628419  0.29556674  0.00795085    -0.71500
O215        O  0.26611844  0.29630818  0.01156757    -0.71100
O216        O  0.26660347  0.20506463  0.01103487    -0.62300
O217        O  0.27163523  0.25116271  0.97728174    -0.74800
O218        O  0.26256800  0.25009846  0.04546385    -0.73600
Cu219      Cu  0.21513768  0.25055380  0.00750476     1.04600
Cu220      Cu  0.26845763  0.25068798  0.01147187     1.04300
C221        C  0.23646592  0.24959486  0.05475765     0.92700
C222        C  0.24841233  0.25131543  0.96434739     0.91800
C223        C  0.24148245  0.19094792  0.00917788     0.84000
C224        C  0.24091435  0.31031292  0.00976239     0.90300
O225        O  0.46512663  0.00078957  0.88542606    -0.73500
O226        O  0.47526361  0.00170991  0.81710394    -0.74500
O227        O  0.47086057  0.45523193  0.85106579    -0.63100
O228        O  0.47150967  0.04676116  0.85153748    -0.71500
O229        O  0.03532912  0.04169342  0.85133887    -0.71100
O230        O  0.03410639  0.45133568  0.85134487    -0.62300
O231        O  0.03355353  0.99618541  0.81672610    -0.74800
O232        O  0.03549800  0.99649879  0.88586402    -0.73600
Cu233      Cu  0.46891525  0.00111645  0.85112494     1.04600
Cu234      Cu  0.03637506  0.99639302  0.85129106     1.04300
C235        C  0.48833691  0.00116121  0.89837598     0.92700
C236        C  0.50142881  0.00062981  0.80796972     0.91800
C237        C  0.49594922  0.44109901  0.85342060     0.84000
C238        C  0.49690403  0.06050234  0.85298177     0.90300
O239        O  0.48248400  0.25029611  0.88998204    -0.73500
O240        O  0.47425390  0.25061414  0.82065985    -0.74500
O241        O  0.47780527  0.20571923  0.85514274    -0.63100
O242        O  0.47707980  0.29548282  0.85548829    -0.71500
O243        O  0.03583507  0.29244547  0.85306654    -0.71100
O244        O  0.03699404  0.20162857  0.85266184    -0.62300
O245        O  0.03374098  0.24779740  0.81836364    -0.74800
O246        O  0.03946744  0.24690885  0.88741444    -0.73600
Cu247      Cu  0.47618271  0.25050516  0.85546399     1.04600
Cu248      Cu  0.03828299  0.24716096  0.85279407     1.04300
C249        C  0.50887977  0.24999967  0.89905546     0.92700
C250        C  0.49837962  0.25212325  0.80859527     0.91800
C251        C  0.50247353  0.19112460  0.85314985     0.84000
C252        C  0.50160906  0.31048644  0.85433253     0.90300
O253        O  0.22613048  0.00291395  0.88883057    -0.73500
O254        O  0.22146107  0.00278613  0.81943675    -0.74500
O255        O  0.22353855  0.45800812  0.85416499    -0.63100
O256        O  0.22303598  0.04804988  0.85406021    -0.71500
O257        O  0.27308159  0.04885039  0.85306505    -0.71100
O258        O  0.27350021  0.45768683  0.85170917    -0.62300
O259        O  0.27153544  0.00463167  0.81803959    -0.74800
O260        O  0.27616903  0.00238089  0.88665709    -0.73600
Cu261      Cu  0.22177442  0.00294510  0.85419210     1.04600
Cu262      Cu  0.27529275  0.00336433  0.85229542     1.04300
C263        C  0.25204674  0.00244150  0.89861926     0.92700
C264        C  0.24600407  0.00404300  0.80786699     0.91800
C265        C  0.24835964  0.44347143  0.85294649     0.84000
C266        C  0.24777832  0.06281929  0.85358868     0.90300
O267        O  0.21269922  0.25237933  0.88572858    -0.73500
O268        O  0.22452757  0.25466415  0.81772916    -0.74500
O269        O  0.21920163  0.20770642  0.85104761    -0.63100
O270        O  0.21941989  0.29887324  0.85246209    -0.71500
O271        O  0.26922448  0.29800325  0.85632410    -0.71100
O272        O  0.26876725  0.20795651  0.85644009    -0.62300
O273        O  0.27436189  0.25264797  0.82187390    -0.74800
O274        O  0.26237788  0.25290775  0.89079745    -0.73600
Cu275      Cu  0.21722991  0.25337705  0.85156726     1.04600
Cu276      Cu  0.27041565  0.25287767  0.85655711     1.04300
C277        C  0.23555293  0.25245854  0.89904856     0.92700
C278        C  0.25095091  0.25403151  0.80902118     0.91800
C279        C  0.24415103  0.19345920  0.85366094     0.84000
C280        C  0.24462072  0.31281291  0.85437418     0.90300
O281        O  0.04633206  0.48214890  0.65996569    -0.73500
O282        O  0.45553211  0.46868832  0.66589112    -0.74500
O283        O  0.49936400  0.46657501  0.62987370    -0.63100
O284        O  0.50340289  0.47085725  0.69891406    -0.71500
O285        O  0.50117183  0.02118418  0.69719727    -0.71100
O286        O  0.50007469  0.01660887  0.62818845    -0.62300
O287        O  0.45554565  0.01878832  0.66328449    -0.74800
O288        O  0.04623717  0.03180306  0.66300432    -0.73600
Cu289      Cu  0.50122439  0.46707041  0.66446532     1.04600
Cu290      Cu  0.50064503  0.02071226  0.66264205     1.04300
C291        C  0.06065088  0.00686897  0.66122261     0.92700
C292        C  0.44113190  0.99391871  0.66502153     0.91800
C293        C  0.49952240  0.99089874  0.61817024     0.84000
C294        C  0.50277438  0.99685542  0.70896830     0.90300
O295        O  0.45596025  0.28307916  0.66420834    -0.73500
O296        O  0.04650768  0.27963554  0.66477631    -0.74500
O297        O  0.50215984  0.28407309  0.63043075    -0.63100
O298        O  0.50062344  0.28135422  0.69931555    -0.71500
O299        O  0.49869798  0.23127908  0.69827135    -0.71100
O300        O  0.50234202  0.23397755  0.62916338    -0.62300
O301        O  0.04619389  0.22959651  0.66361178    -0.74800
O302        O  0.45557713  0.23307459  0.66244108    -0.73600
Cu303      Cu  0.50138535  0.28441944  0.66491147     1.04600
Cu304      Cu  0.50074897  0.23087825  0.66368630     1.04300
C305        C  0.44139404  0.25819538  0.66306535     0.92700
C306        C  0.06071522  0.25454195  0.66425575     0.91800
C307        C  0.50238494  0.25953341  0.61892156     0.84000
C308        C  0.49909642  0.25594963  0.70966452     0.90300
O309        O  0.25081917  0.02740859  0.69725631    -0.73500
O310        O  0.25293073  0.02342350  0.62798929    -0.74500
O311        O  0.20660384  0.02779798  0.66172759    -0.63100
O312        O  0.29706718  0.02321872  0.66367750    -0.71500
O313        O  0.29475090  0.47328633  0.66646491    -0.71100
O314        O  0.20435507  0.47786484  0.66237491    -0.62300
O315        O  0.25195027  0.47344276  0.63008233    -0.74800
O316        O  0.24641424  0.47746095  0.69875324    -0.73600
Cu317      Cu  0.25196418  0.02723286  0.66260236     1.04600
Cu318      Cu  0.24931651  0.47379591  0.66446881     1.04300
C319        C  0.24784567  0.00306542  0.70887027     0.92700
C320        C  0.25283222  0.99756636  0.61819255     0.91800
C321        C  0.19115875  0.00342585  0.66168859     0.84000
C322        C  0.31029683  0.99767111  0.66553187     0.90300
O323        O  0.25125674  0.28115403  0.69947130    -0.73500
O324        O  0.24980022  0.28337891  0.63070816    -0.74500
O325        O  0.20528063  0.28117183  0.66558618    -0.63100
O326        O  0.29598727  0.28288179  0.66448719    -0.71500
O327        O  0.29666564  0.23285915  0.66308647    -0.71100
O328        O  0.20622105  0.23112576  0.66505211    -0.62300
O329        O  0.25020504  0.23328277  0.62945444    -0.74800
O330        O  0.25325098  0.23109340  0.69881535    -0.73600
Cu331      Cu  0.25054023  0.28386338  0.66511135     1.04600
Cu332      Cu  0.25157912  0.23032220  0.66408954     1.04300
C333        C  0.25275680  0.25592124  0.71004938     0.92700
C334        C  0.24976932  0.25885250  0.61920595     0.91800
C335        C  0.19137549  0.25587382  0.66537527     0.84000
C336        C  0.31069327  0.25805397  0.66351601     0.90300
C337        C  0.36029905  0.23102396  0.66199142    -0.13900
C338        C  0.34411873  0.25830124  0.66295658     0.08200
C339        C  0.36020588  0.28564303  0.66353909    -0.13900
C340        C  0.39179698  0.28566678  0.66338686    -0.13900
C341        C  0.40795379  0.25835274  0.66264861     0.08200
C342        C  0.39183109  0.23104820  0.66183291    -0.13900
H343        H  0.34860830  0.20955863  0.66147589     0.12200
H344        H  0.34840279  0.30703890  0.66423563     0.12200
H345        H  0.40355222  0.30708988  0.66398543     0.12200
H346        H  0.40356827  0.20960991  0.66122061     0.12200
C347        C  0.10996728  0.28203154  0.66606639    -0.13900
C348        C  0.09413223  0.25460910  0.66450527     0.08200
C349        C  0.11054647  0.22749341  0.66331608    -0.13900
C350        C  0.14213789  0.22783895  0.66370267    -0.13900
C351        C  0.15794023  0.25530791  0.66528076     0.08200
C352        C  0.14147893  0.28237595  0.66644633    -0.13900
H353        H  0.09801737  0.30332890  0.66703230     0.12200
H354        H  0.09900287  0.20600062  0.66207098     0.12200
H355        H  0.15417072  0.20659345  0.66268930     0.12200
H356        H  0.15293754  0.30391669  0.66764854     0.12200
C357        C  0.39073803  0.96765672  0.66672991    -0.13900
C358        C  0.40764675  0.99449986  0.66587513     0.08200
C359        C  0.39224865  0.52210062  0.66565293    -0.13900
C360        C  0.36073679  0.52306042  0.66583127    -0.13900
C361        C  0.34374839  0.99640183  0.66626311     0.08200
C362        C  0.35910390  0.96860006  0.66692398    -0.13900
H363        H  0.40192809  0.94591956  0.66702522     0.12200
H364        H  0.40454112  0.54322746  0.66516380     0.12200
H365        H  0.34968741  0.54487141  0.66544736     0.12200
H366        H  0.34668820  0.94754431  0.66733270     0.12200
C367        C  0.10944432  0.47897604  0.65989325    -0.13900
C368        C  0.09404436  0.00647807  0.66086754     0.08200
C369        C  0.11082967  0.03337847  0.66173498    -0.13900
C370        C  0.14243104  0.03250586  0.66177799    -0.13900
C371        C  0.15779252  0.00471977  0.66101971     0.08200
C372        C  0.14090410  0.47807078  0.65996883    -0.13900
H373        H  0.09719716  0.45783431  0.65915902     0.12200
H374        H  0.09957380  0.05506445  0.66247730     0.12200
H375        H  0.15480881  0.05356408  0.66259513     0.12200
H376        H  0.15198704  0.45629163  0.65927886     0.12200
C377        C  0.26903540  0.23271131  0.77166913    -0.13900
C378        C  0.25384844  0.25541029  0.78388044     0.08200
C379        C  0.23909165  0.27850257  0.77180649    -0.13900
C380        C  0.23939936  0.27894148  0.74780025    -0.13900
C381        C  0.25364970  0.25573237  0.73543833     0.08200
C382        C  0.26856039  0.23261964  0.74754813    -0.13900
H383        H  0.28028267  0.21455990  0.78077326     0.12200
H384        H  0.22717046  0.29612946  0.78100610     0.12200
H385        H  0.22774112  0.29699264  0.73888134     0.12200
H386        H  0.27988766  0.21460985  0.73836451     0.12200
C387        C  0.21980147  0.39467928  0.85259818    -0.13900
C388        C  0.24761470  0.41003854  0.85315024     0.08200
C389        C  0.27440282  0.39314228  0.85421926    -0.13900
C390        C  0.27338699  0.36158752  0.85476646    -0.13900
C391        C  0.24556294  0.34624237  0.85414755     0.08200
C392        C  0.21879143  0.36315490  0.85304839    -0.13900
H393        H  0.19871452  0.40701986  0.85177451     0.12200
H394        H  0.29615748  0.40428816  0.85474500     0.12200
H395        H  0.29445329  0.34921412  0.85559010     0.12200
H396        H  0.19701498  0.35204776  0.85254487     0.12200
C397        C  0.27364460  0.11311773  0.85496099    -0.13900
C398        C  0.24688504  0.09623802  0.85358620     0.08200
C399        C  0.21912255  0.11160651  0.85215942    -0.13900
C400        C  0.21814870  0.14316188  0.85208579    -0.13900
C401        C  0.24490879  0.16003302  0.85353532     0.08200
C402        C  0.27266348  0.14464808  0.85498642    -0.13900
H403        H  0.29537010  0.10198052  0.85609475     0.12200
H404        H  0.19807586  0.09925013  0.85103161     0.12200
H405        H  0.19643579  0.15432278  0.85097162     0.12200
H406        H  0.29373173  0.15697113  0.85611153     0.12200
C407        C  0.26574381  0.02308529  0.77045811    -0.13900
C408        C  0.24521176  0.00485224  0.78255152     0.08200
C409        C  0.22519277  0.48632541  0.77026530    -0.13900
C410        C  0.22609149  0.48566160  0.74619935    -0.13900
C411        C  0.24628849  0.00433747  0.73413476     0.08200
C412        C  0.26591208  0.02322910  0.74641313    -0.13900
H413        H  0.28158086  0.03730224  0.77964195     0.12200
H414        H  0.20953426  0.47175015  0.77930567     0.12200
H415        H  0.21092418  0.47075275  0.73699797     0.12200
H416        H  0.28197797  0.03739255  0.73740446     0.12200
C417        C  0.47942667  0.23332507  0.77069341    -0.13900
C418        C  0.49690561  0.25381912  0.78337254     0.08200
C419        C  0.02175090  0.27043817  0.77125047    -0.13900
C420        C  0.01961527  0.27223079  0.74729603    -0.13900
C421        C  0.49801327  0.25523573  0.73498103     0.08200
C422        C  0.48037562  0.23369953  0.74659867    -0.13900
H423        H  0.46583773  0.21651526  0.77941674     0.12200
H424        H  0.03522402  0.28692946  0.78042057     0.12200
H425        H  0.03174533  0.28992898  0.73834485     0.12200
H426        H  0.46715823  0.21739853  0.73703460     0.12200
C427        C  0.03669947  0.38783772  0.85195481    -0.13900
C428        C  0.49709380  0.40767179  0.85356795     0.08200
C429        C  0.47055804  0.39037792  0.85355267    -0.13900
C430        C  0.47208640  0.35883125  0.85392520    -0.13900
C431        C  0.50018368  0.34390249  0.85420219     0.08200
C432        C  0.03711910  0.35632276  0.85254491    -0.13900
H433        H  0.05802719  0.39979079  0.85161160     0.12200
H434        H  0.44862648  0.40119917  0.85335538     0.12200
H435        H  0.45119158  0.34613375  0.85391563     0.12200
H436        H  0.05872598  0.34486433  0.85259554     0.12200
C437        C  0.03866771  0.10566560  0.85230313    -0.13900
C438        C  0.49831001  0.09392318  0.85285316     0.08200
C439        C  0.47180828  0.11123390  0.85195401    -0.13900
C440        C  0.47330443  0.14274195  0.85198321    -0.13900
C441        C  0.50134701  0.15770102  0.85282470     0.08200
C442        C  0.03908213  0.13724493  0.85278285    -0.13900
H443        H  0.05992057  0.09364779  0.85124258     0.12200
H444        H  0.44987449  0.10045471  0.85129935     0.12200
H445        H  0.45239247  0.15539270  0.85131730     0.12200
H446        H  0.06062116  0.14878242  0.85205117     0.12200
C447        C  0.02229169  0.47766152  0.76793682    -0.13900
C448        C  0.50371266  0.00073724  0.78272460     0.08200
C449        C  0.48689958  0.02170533  0.76992436    -0.13900
C450        C  0.48730018  0.02091721  0.74589515    -0.13900
C451        C  0.50367024  0.99846458  0.73429897     0.08200
C452        C  0.02043720  0.47853510  0.74390747    -0.13900
H453        H  0.03543944  0.46007023  0.77615939     0.12200
H454        H  0.47342959  0.03868895  0.77856449     0.12200
H455        H  0.47410473  0.03730357  0.73637303     0.12200
H456        H  0.03243437  0.46174240  0.73390964     0.12200
C457        C  0.25316832  0.25177951  0.93925056    -0.17000
C458        C  0.23034116  0.25200352  0.92411604    -0.32200
H459        H  0.27633693  0.25195459  0.93308246     0.12000
H460        H  0.20714557  0.25179968  0.93022134     0.12600
C461        C  0.26565014  0.39223102  0.00913398    -0.13900
C462        C  0.23779090  0.40753434  0.00865752     0.08200
C463        C  0.21101331  0.39058296  0.00873160    -0.13900
C464        C  0.21208468  0.35903620  0.00916085    -0.13900
C465        C  0.23995538  0.34374207  0.00961044     0.08200
C466        C  0.26671898  0.36070270  0.00964224    -0.13900
H467        H  0.28673150  0.40461825  0.00915386     0.12200
H468        H  0.18921751  0.40167157  0.00841973     0.12200
H469        H  0.19101533  0.34662817  0.00915035     0.12200
H470        H  0.28852133  0.34962743  0.00994601     0.12200
C471        C  0.26622863  0.10898434  0.01059460    -0.13900
C472        C  0.23838939  0.09372639  0.00933243     0.08200
C473        C  0.21168352  0.11071897  0.00816562    -0.13900
C474        C  0.21278479  0.14224774  0.00809143    -0.13900
C475        C  0.24061587  0.15752030  0.00926496     0.08200
C476        C  0.26732580  0.14053575  0.01059928    -0.13900
H477        H  0.28724476  0.09654477  0.01158731     0.12200
H478        H  0.18990759  0.09966964  0.00717480     0.12200
H479        H  0.19175111  0.15465757  0.00710898     0.12200
H480        H  0.28909418  0.15160214  0.01158208     0.12200
C481        C  0.25480953  0.00193780  0.92392478    -0.17000
C482        C  0.23068357  0.00180989  0.93785841    -0.32200
H483        H  0.27738844  0.00163203  0.93124925     0.12000
H484        H  0.20828294  0.50214638  0.93048057     0.12600
C485        C  0.51286258  0.24981590  0.92428183    -0.17000
C486        C  0.99211236  0.24883303  0.93768405    -0.32200
H487        H  0.03928460  0.24773068  0.93269768     0.12000
H488        H  0.46647802  0.25012510  0.93164595     0.12600
C489        C  0.47345658  0.39360593  0.00847168    -0.13900
C490        C  0.99421084  0.40737626  0.00737696     0.08200
C491        C  0.02098702  0.39042157  0.00756684    -0.13900
C492        C  0.01992970  0.35888159  0.00770736    -0.13900
C493        C  0.99206899  0.34358175  0.00758266     0.08200
C494        C  0.47146018  0.36210446  0.00856326    -0.13900
H495        H  0.45272050  0.40655599  0.00890177     0.12200
H496        H  0.04278261  0.40150855  0.00768671     0.12200
H497        H  0.04100872  0.34648551  0.00791240     0.12200
H498        H  0.44937210  0.35163101  0.00906204     0.12200
C499        C  0.02078068  0.11054565  0.00600531    -0.13900
C500        C  0.99400776  0.09360223  0.00648875     0.08200
C501        C  0.47314873  0.10896175  0.01099475    -0.13900
C502        C  0.47112195  0.14047482  0.01108521    -0.13900
C503        C  0.99194324  0.15737551  0.00806879     0.08200
C504        C  0.01976126  0.14207268  0.00682716    -0.13900
H505        H  0.04254852  0.09945841  0.00511444     0.12200
H506        H  0.45245509  0.09598659  0.01183846     0.12200
H507        H  0.44905530  0.15095492  0.01198818     0.12200
H508        H  0.04083496  0.15446210  0.00642044     0.12200
C509        C  0.98755423  0.99829090  0.93605646    -0.17000
C510        C  0.48396890  0.00135658  0.92362202    -0.32200
H511        H  0.96532530  0.49868839  0.92842827     0.12000
H512        H  0.46112826  0.00054610  0.93041985     0.12600
C513        C  0.24941980  0.26080843  0.59389174    -0.17000
C514        C  0.25019557  0.23643990  0.58014417    -0.32200
H515        H  0.24879930  0.28326048  0.58635252     0.12000
H516        H  0.25077443  0.21392825  0.58757041     0.12600
C517        C  0.25181967  0.01856969  0.57855088    -0.17000
C518        C  0.25344966  0.99480814  0.59291698    -0.32200
H519        H  0.25036498  0.04135153  0.58538728     0.12000
H520        H  0.25466917  0.47219139  0.58587880     0.12600
C521        C  0.35946677  0.21639470  0.50922718    -0.13900
C522        C  0.34345216  0.24380330  0.50921683     0.08200
C523        C  0.35968763  0.27105950  0.50908399    -0.13900
C524        C  0.39123136  0.27092264  0.50906745    -0.13900
C525        C  0.40725041  0.24352760  0.50919544     0.08200
C526        C  0.39102894  0.21625741  0.50921785    -0.13900
H527        H  0.34762236  0.19500497  0.50933828     0.12200
H528        H  0.34802819  0.29255436  0.50897810     0.12200
H529        H  0.40305910  0.29232207  0.50895206     0.12200
H530        H  0.40270752  0.19477158  0.50931875     0.12200
C531        C  0.10947667  0.27199493  0.51179789    -0.13900
C532        C  0.09339115  0.24488286  0.50894647     0.08200
C533        C  0.10959339  0.21780688  0.50637962    -0.13900
C534        C  0.14114334  0.21782263  0.50663211    -0.13900
C535        C  0.15723858  0.24491704  0.50945654     0.08200
C536        C  0.14105694  0.27201141  0.51204738    -0.13900
H537        H  0.09767407  0.29323605  0.51387662     0.12200
H538        H  0.09790232  0.19653448  0.50415015     0.12200
H539        H  0.15291783  0.19656427  0.50456237     0.12200
H540        H  0.15278113  0.29326574  0.51428601     0.12200
C541        C  0.50110979  0.23674406  0.58005646    -0.17000
C542        C  0.50240167  0.26130580  0.59360067    -0.32200
H543        H  0.50043285  0.21434228  0.58766949     0.12000
H544        H  0.00061131  0.28298466  0.58607895     0.12600
C545        C  0.39341569  0.48556126  0.50817404    -0.13900
C546        C  0.40860332  0.51344152  0.50846855     0.08200
C547        C  0.39146914  0.04004240  0.50843855    -0.13900
C548        C  0.35987352  0.03888174  0.50823980    -0.13900
C549        C  0.34483989  0.51106005  0.50815818     0.08200
C550        C  0.36194722  0.48438937  0.50806288    -0.13900
H551        H  0.40584454  0.46450195  0.50806723     0.12200
H552        H  0.40251985  0.06185231  0.50854273     0.12200
H553        H  0.34730526  0.05985952  0.50824667     0.12200
H554        H  0.35102668  0.46251383  0.50784178     0.12200
C555        C  0.11163463  0.47482463  0.50858459    -0.13900
C556        C  0.09500665  0.50185718  0.50781390     0.08200
C557        C  0.11055058  0.02939917  0.50732653    -0.13900
C558        C  0.14206158  0.02999162  0.50751109    -0.13900
C559        C  0.15882668  0.50306175  0.50825718     0.08200
C560        C  0.14323974  0.47542236  0.50888087    -0.13900
H561        H  0.10023421  0.45320255  0.50902410     0.12200
H562        H  0.09843630  0.05063012  0.50675229     0.12200
H563        H  0.15335219  0.05167471  0.50712962     0.12200
H564        H  0.15544875  0.45424762  0.50946105     0.12200
C565        C  0.50108421  0.01384797  0.57959263    -0.17000
C566        C  0.49935607  0.98900583  0.59277824    -0.32200
H567        H  0.50226947  0.03594272  0.58767230     0.12000
H568        H  0.99932942  0.53646822  0.58482242     0.12600
C569        C  0.24791257  0.22905506  0.42484572    -0.17000
C570        C  0.24955781  0.25299450  0.43898069    -0.32200
H571        H  0.24700589  0.20639419  0.43199003     0.12000
H572        H  0.25043496  0.27567560  0.43187505     0.12600
C573        C  0.25315967  0.51527214  0.42284466    -0.17000
C574        C  0.25272117  0.49255010  0.43811264    -0.32200
H575        H  0.25327671  0.53848305  0.42890461     0.12000
H576        H  0.25265890  0.96935114  0.43210479     0.12600
C577        C  0.49932577  0.22737243  0.42447340    -0.17000
C578        C  0.49982945  0.25119320  0.43880104    -0.32200
H579        H  0.49935965  0.20458037  0.43139857     0.12000
H580        H  0.99911044  0.27606736  0.43140005     0.12600
C581        C  0.38855190  0.26394943  0.35561320    -0.13900
C582        C  0.40484298  0.23675566  0.35465153     0.08200
C583        C  0.38888558  0.20933962  0.35378345    -0.13900
C584        C  0.35733215  0.20913297  0.35386250    -0.13900
C585        C  0.34104115  0.23633774  0.35478536     0.08200
C586        C  0.35700082  0.26374405  0.35567239    -0.13900
H587        H  0.40016926  0.28544589  0.35626845     0.12200
H588        H  0.40076618  0.18798784  0.35303599     0.12200
H589        H  0.34571553  0.18763748  0.35315758     0.12200
H590        H  0.34512115  0.28509733  0.35637631     0.12200
C591        C  0.10732536  0.26425806  0.35562761    -0.13900
C592        C  0.09096022  0.23732535  0.35278676     0.08200
C593        C  0.10688434  0.21007248  0.35021756    -0.13900
C594        C  0.13846295  0.20975499  0.35051167    -0.13900
C595        C  0.15481522  0.23668738  0.35336738     0.08200
C596        C  0.13887901  0.26394269  0.35590991    -0.13900
H597        H  0.09576277  0.28563346  0.35769897     0.12200
H598        H  0.09495386  0.18893063  0.34800777     0.12200
H599        H  0.15005610  0.18839142  0.34848766     0.12200
H600        H  0.15077895  0.28509569  0.35816998     0.12200
C601        C  0.50042776  0.49325680  0.42449209    -0.17000
C602        C  0.50144369  0.51766248  0.43812314    -0.32200
H603        H  0.49955892  0.47081672  0.43203224     0.12000
H604        H  0.00272082  0.03646915  0.43019698     0.12600
C605        C  0.36178934  0.47483489  0.35311634    -0.13900
C606        C  0.34619692  0.50246407  0.35164780     0.08200
C607        C  0.36303699  0.02943723  0.34983109    -0.13900
C608        C  0.39462049  0.02868962  0.34979136    -0.13900
C609        C  0.41006145  0.50092543  0.35150584     0.08200
C610        C  0.39334511  0.47406932  0.35298800    -0.13900
H611        H  0.34960889  0.45370510  0.35443638     0.12200
H612        H  0.35172300  0.05106467  0.34867880     0.12200
H613        H  0.40683491  0.04981304  0.34859335     0.12200
H614        H  0.40463738  0.45244706  0.35430877     0.12200
C615        C  0.11181026  0.02820893  0.35484525    -0.13900
C616        C  0.09606967  0.50043774  0.35325453     0.08200
C617        C  0.11274924  0.47350595  0.35195717    -0.13900
C618        C  0.14431143  0.47417325  0.35203067    -0.13900
C619        C  0.15988674  0.50179517  0.35330680     0.08200
C620        C  0.14336106  0.02886303  0.35482022    -0.13900
H621        H  0.09964885  0.04937946  0.35588664     0.12200
H622        H  0.10143232  0.45188638  0.35078477     0.12200
H623        H  0.15650859  0.45303080  0.35089489     0.12200
H624        H  0.15469398  0.05048150  0.35590417     0.12200
C625        C  0.25855230  0.24674050  0.09359893    -0.17000
C626        C  0.23388165  0.24842397  0.08009687    -0.32200
H627        H  0.28087915  0.24636470  0.08584361     0.12000
H628        H  0.21148813  0.24882801  0.08772405     0.12600
C629        C  0.23464300  0.26448171  0.24738104    -0.13900
C630        C  0.25328068  0.24450028  0.23513533     0.08200
C631        C  0.27060097  0.22323998  0.24721763    -0.13900
C632        C  0.26883899  0.22154209  0.27120358    -0.13900
C633        C  0.25054750  0.24178286  0.28352155     0.08200
C634        C  0.23372200  0.26351287  0.27145892    -0.13900
H635        H  0.22113616  0.28106067  0.23831874     0.12200
H636        H  0.28496473  0.20751959  0.23804388     0.12200
H637        H  0.28209968  0.20468491  0.28018103     0.12200
H638        H  0.21940403  0.27926808  0.28063204     0.12200
C639        C  0.26320022  0.99821573  0.09228179    -0.17000
C640        C  0.23811464  0.99901900  0.07932594    -0.32200
H641        H  0.28520254  0.49846280  0.08416347     0.12000
H642        H  0.21610690  0.99892307  0.08760541     0.12600
C643        C  0.23038681  0.38661765  0.16110452    -0.13900
C644        C  0.25795069  0.40232816  0.16204457     0.08200
C645        C  0.28496021  0.38578726  0.16348277    -0.13900
C646        C  0.28440313  0.35424606  0.16414032    -0.13900
C647        C  0.25682243  0.33854559  0.16336371     0.08200
C648        C  0.22983064  0.35508336  0.16175150    -0.13900
H649        H  0.20916687  0.39868571  0.15997389     0.12200
H650        H  0.30656088  0.39720476  0.16425210     0.12200
H651        H  0.30561570  0.34217246  0.16531521     0.12200
H652        H  0.20822224  0.34367455  0.16103331     0.12200
C653        C  0.28412182  0.13667032  0.16513593    -0.13900
C654        C  0.25647702  0.15234238  0.16482312     0.08200
C655        C  0.22947017  0.13573528  0.16469895    -0.06700
C656        C  0.23010437  0.10417449  0.16465905    -0.13900
C657        C  0.25775750  0.08850999  0.16476976     0.08200
C658        C  0.28475513  0.10511870  0.16512352    -0.13900
H659        H  0.30536179  0.14878256  0.16530378     0.12200
H660        H  0.20781945  0.14710809  0.16453339     0.12200
H661        H  0.20887173  0.09204944  0.16445897     0.12200
H662        H  0.30641055  0.09375378  0.16524155     0.12200
C663        C  0.23329308  0.01155036  0.24518936    -0.13900
C664        C  0.25442907  0.49334955  0.23375540     0.08200
C665        C  0.27444478  0.47552946  0.24671513    -0.13900
C666        C  0.27303234  0.47566256  0.27079922    -0.13900
C667        C  0.25231799  0.49443027  0.28216974     0.08200
C668        C  0.23259769  0.01250145  0.26920680    -0.13900
H669        H  0.21781126  0.02561519  0.23551005     0.12200
H670        H  0.29100103  0.46141396  0.23820011     0.12200
H671        H  0.28874027  0.46193685  0.28054585     0.12200
H672        H  0.21655147  0.02723685  0.27768598     0.12200
C673        C  0.00865828  0.25411146  0.09310305    -0.17000
C674        C  0.98467934  0.25245642  0.07906470    -0.32200
H675        H  0.03130457  0.25468556  0.08591493     0.12000
H676        H  0.47023332  0.25311267  0.08737083     0.12600
C677        C  0.47728363  0.23290256  0.24592893    -0.13900
C678        C  0.49797367  0.25239670  0.23524136     0.08200
C679        C  0.01404821  0.27036051  0.24769003    -0.13900
C680        C  0.01377592  0.26829972  0.27170279    -0.13900
C681        C  0.49675354  0.24709081  0.28354661     0.08200
C682        C  0.47705508  0.22986667  0.26991404    -0.13900
H683        H  0.46209161  0.21924203  0.23568784     0.12200
H684        H  0.02855959  0.28685119  0.23948319     0.12200
H685        H  0.02812110  0.28319543  0.28164931     0.12200
H686        H  0.46143919  0.21417571  0.27784464     0.12200
C687        C  0.00688250  0.00203229  0.07689443    -0.17000
C688        C  0.98395942  0.00206337  0.09194439    -0.32200
H689        H  0.53290417  0.50012524  0.08620628     0.12000
H690        H  0.96081635  0.00164741  0.08572848     0.12600
C691        C  0.02448289  0.39557939  0.16257138    -0.13900
C692        C  0.50137399  0.41042465  0.16543706     0.08200
C693        C  0.47472704  0.39329681  0.16580828    -0.13900
C694        C  0.47602136  0.36174495  0.16550569    -0.13900
C695        C  0.50399444  0.34662979  0.16495937     0.08200
C696        C  0.02544423  0.36405250  0.16290828    -0.13900
H697        H  0.04556410  0.40785407  0.16129141     0.12200
H698        H  0.45286853  0.40425599  0.16616951     0.12200
H699        H  0.45504364  0.34918849  0.16574198     0.12200
H700        H  0.04716672  0.35290560  0.16181560     0.12200
C701        C  0.02631571  0.11251824  0.16262114    -0.13900
C702        C  0.50213242  0.09664966  0.16434846     0.08200
C703        C  0.47554144  0.11381817  0.16543375    -0.13900
C704        C  0.47687645  0.14533077  0.16565964    -0.13900
C705        C  0.50484129  0.16041963  0.16492108     0.08200
C706        C  0.02726585  0.14407793  0.16319606    -0.13900
H707        H  0.04734876  0.10010738  0.16362080     0.12200
H708        H  0.45366249  0.10292422  0.16604478     0.12200
H709        H  0.45591291  0.15788298  0.16645433     0.12200
H710        H  0.04896072  0.15522342  0.16452959     0.12200
C711        C  0.49375443  0.02797923  0.27125053    -0.13900
C712        C  0.50823122  0.50449711  0.28329386     0.08200
C713        C  0.02642460  0.48881069  0.26827158    -0.13900
C714        C  0.02622466  0.48962237  0.24419372    -0.13900
C715        C  0.50924463  0.50574391  0.23488209     0.08200
C716        C  0.49374936  0.02823078  0.24721115    -0.13900
H717        H  0.48132104  0.04525608  0.28042862     0.12200
H718        H  0.04229263  0.47415239  0.27703104     0.12200
H719        H  0.04177175  0.47542460  0.23471029     0.12200
H720        H  0.48131827  0.04568875  0.23820560     0.12200
O721        O  0.46883485  0.50276136  0.13271076    -0.73500
O722        O  0.48028548  0.00526156  0.20084597    -0.74500
O723        O  0.47556734  0.54940311  0.16604426    -0.63100
O724        O  0.47532441  0.95804225  0.16758457    -0.71500
O725        O  0.02103576  0.95883681  0.16057439    -0.71100
O726        O  0.02181876  0.54891744  0.15964013    -0.62300
O727        O  0.02628220  0.00439670  0.19458245    -0.74800
O728        O  0.01541866  0.50326853  0.12555430    -0.73600
Cu729      Cu  0.47323662  0.50382484  0.16695688     1.04600
Cu730      Cu  0.02298713  0.00379783  0.15987515     1.04300
C731        C  0.98873535  0.50282408  0.11703588     0.92700
C732        C  0.50663657  0.00479838  0.20968882     0.91800
C733        C  0.99722984  0.56382202  0.16116417     0.84000
C734        C  0.99631887  0.94448498  0.16333781     0.90300
O735        O  0.47675710  0.75254994  0.19742582    -0.73500
O736        O  0.48646196  0.75363026  0.12841823    -0.74500
O737        O  0.48118458  0.70843279  0.16265282    -0.63100
O738        O  0.48062797  0.79832422  0.16320282    -0.71500
O739        O  0.02503091  0.79981600  0.16499148    -0.71100
O740        O  0.02587764  0.70864720  0.16484257    -0.62300
O741        O  0.02931147  0.75434469  0.13067128    -0.74800
O742        O  0.02277794  0.75437215  0.19934267    -0.73600
Cu743      Cu  0.47956532  0.75327575  0.16275812     1.04600
Cu744      Cu  0.02750402  0.75432832  0.16507713     1.04300
C745        C  0.50047533  0.75339577  0.20997377     0.92700
C746        C  0.00546019  0.75454665  0.11838210     0.91800
C747        C  0.50582996  0.69383537  0.16488855     0.84000
C748        C  0.50521649  0.81320758  0.16468967     0.90300
O749        O  0.23577521  0.49641838  0.12775795    -0.73500
O750        O  0.23156405  0.49491727  0.19672610    -0.74500
O751        O  0.23333452  0.54060373  0.16287128    -0.63100
O752        O  0.23361912  0.95033890  0.16171853    -0.71500
O753        O  0.28366878  0.94991941  0.16272609    -0.71100
O754        O  0.28331147  0.54079152  0.16514498    -0.62300
O755        O  0.28163017  0.49327701  0.19840423    -0.74800
O756        O  0.28583631  0.49699833  0.12933825    -0.73600
Cu757      Cu  0.23183741  0.49553249  0.16217474     1.04600
Cu758      Cu  0.28535967  0.49526252  0.16394028     1.04300
C759        C  0.26142487  0.49718411  0.11765145     0.92700
C760        C  0.25596198  0.49372222  0.20843799     0.91800
C761        C  0.25819270  0.55507115  0.16430183     0.84000
C762        C  0.25851189  0.93575994  0.16209790     0.90300
O763        O  0.23165536  0.74523391  0.12931914    -0.73500
O764        O  0.22964878  0.74655763  0.19844478    -0.74500
O765        O  0.23112977  0.79105643  0.16330425    -0.63100
O766        O  0.23087895  0.70012077  0.16442514    -0.71500
O767        O  0.28094371  0.70021525  0.16458644    -0.71100
O768        O  0.28113793  0.79049101  0.16516138    -0.62300
O769        O  0.27973714  0.74444985  0.19947788    -0.74800
O770        O  0.28176300  0.74585320  0.13033692    -0.73600
Cu771      Cu  0.22905399  0.74571115  0.16385513     1.04600
Cu772      Cu  0.28261317  0.74526671  0.16492462     1.04300
C773        C  0.25708134  0.74581599  0.11894169     0.92700
C774        C  0.25429261  0.74536127  0.20983471     0.91800
C775        C  0.25632436  0.80514011  0.16401674     0.84000
C776        C  0.25599361  0.68578767  0.16462202     0.90300
O777        O  0.04869003  0.97498305  0.35127446    -0.73500
O778        O  0.45789507  0.97529690  0.35100417    -0.74500
O779        O  0.50631056  0.97742766  0.31844387    -0.63100
O780        O  0.50107451  0.97177545  0.38710201    -0.71500
O781        O  0.50179381  0.52172451  0.38945050    -0.71100
O782        O  0.50452412  0.52722819  0.32040464    -0.62300
O783        O  0.45803777  0.52507679  0.35384313    -0.74800
O784        O  0.04798929  0.52471652  0.35375116    -0.73600
Cu785      Cu  0.50346028  0.97307074  0.35271026     1.04600
Cu786      Cu  0.50311859  0.52640540  0.35499754     1.04300
C787        C  0.06278375  0.00010482  0.35285453     0.92700
C788        C  0.44365619  0.00043776  0.35199560     0.91800
C789        C  0.50648085  0.00318673  0.30856111     0.84000
C790        C  0.50102770  0.99584890  0.39913167     0.90300
O791        O  0.49819506  0.76701976  0.32157847    -0.73500
O792        O  0.49795717  0.75742890  0.39027715    -0.74500
O793        O  0.04344072  0.76265509  0.35483022    -0.63100
O794        O  0.45256672  0.76198994  0.35587596    -0.71500
O795        O  0.45266924  0.71208342  0.35286731    -0.71100
O796        O  0.04281130  0.71289867  0.35069618    -0.62300
O797        O  0.49903819  0.70759385  0.38641339    -0.74800
O798        O  0.49629779  0.71719747  0.31756807    -0.73600
Cu799      Cu  0.49794212  0.76389441  0.35607461     1.04600
Cu800      Cu  0.49783361  0.71062191  0.35184512     1.04300
C801        C  0.49700367  0.74363503  0.30875181     0.92700
C802        C  0.49873796  0.73105024  0.39919718     0.91800
C803        C  0.05750824  0.73761047  0.35271022     0.84000
C804        C  0.43825250  0.73698077  0.35446878     0.90300
O805        O  0.25314950  0.98372846  0.38924239    -0.73500
O806        O  0.25388391  0.97355892  0.32009255    -0.74500
O807        O  0.29846127  0.97844828  0.35474450    -0.63100
O808        O  0.20819176  0.97786772  0.35455217    -0.71500
O809        O  0.20731165  0.52763838  0.35139748    -0.71100
O810        O  0.29837717  0.52795744  0.34972708    -0.62300
O811        O  0.25147027  0.52328684  0.31639718    -0.74800
O812        O  0.25370068  0.53339163  0.38462702    -0.73600
Cu813      Cu  0.25341779  0.97664863  0.35482309     1.04600
Cu814      Cu  0.25273294  0.52978548  0.35038849     1.04300
C815        C  0.25349908  0.01039245  0.39776772     0.92700
C816        C  0.25260236  0.99716570  0.30743300     0.91800
C817        C  0.31287331  0.00314782  0.35202255     0.84000
C818        C  0.19345076  0.00259355  0.35315053     0.90300
O819        O  0.24710543  0.70809760  0.38737223    -0.73500
O820        O  0.24948949  0.71411049  0.31856996    -0.74500
O821        O  0.29335090  0.71113304  0.35375628    -0.63100
O822        O  0.20263026  0.71141911  0.35216785    -0.71500
O823        O  0.20267447  0.76128274  0.35550636    -0.71100
O824        O  0.29315722  0.76114871  0.35541600    -0.62300
O825        O  0.24771165  0.76411465  0.32085068    -0.74800
O826        O  0.24804776  0.75808135  0.39003134    -0.73600
Cu827      Cu  0.24807788  0.70945889  0.35288386     1.04600
Cu828      Cu  0.24787976  0.76290673  0.35554481     1.04300
C829        C  0.24763784  0.73204840  0.39957060     0.92700
C830        C  0.24905652  0.73997068  0.30883675     0.91800
C831        C  0.30762064  0.73618972  0.35466328     0.84000
C832        C  0.18826984  0.73640476  0.35370821     0.90300
O833        O  0.50192084  0.54024745  0.47486553    -0.73500
O834        O  0.50189281  0.53835576  0.54349335    -0.74500
O835        O  0.04704816  0.52628509  0.50955557    -0.63100
O836        O  0.45629740  0.53928928  0.50910700    -0.71500
O837        O  0.45639378  0.98905446  0.50839604    -0.71100
O838        O  0.04725678  0.97652168  0.50497244    -0.62300
O839        O  0.50122764  0.98798724  0.54321609    -0.74800
O840        O  0.50124702  0.98999991  0.47367821    -0.73600
Cu841      Cu  0.50195805  0.54076221  0.50918500     1.04600
Cu842      Cu  0.50130727  0.98698819  0.50839426     1.04300
C843        C  0.50141530  0.01557843  0.46339808     0.92700
C844        C  0.50143125  0.51326938  0.55425743     0.91800
C845        C  0.06148433  0.00144875  0.50735948     0.84000
C846        C  0.44193280  0.01397761  0.50869659     0.90300
O847        O  0.50016695  0.72181268  0.47346178    -0.73500
O848        O  0.50044016  0.71508586  0.54256189    -0.74500
O849        O  0.45499417  0.71838917  0.50806075    -0.63100
O850        O  0.04564950  0.71979747  0.50705519    -0.71500
O851        O  0.04544264  0.76965874  0.51040634    -0.71100
O852        O  0.45501488  0.76833722  0.51067418    -0.62300
O853        O  0.50031333  0.76508012  0.54512107    -0.74800
O854        O  0.50027077  0.77178299  0.47638025    -0.73600
Cu855      Cu  0.50028822  0.71667892  0.50791797     1.04600
Cu856      Cu  0.50024740  0.77011695  0.51085875     1.04300
C857        C  0.50012976  0.74793004  0.46405912     0.92700
C858        C  0.50057543  0.73911307  0.55471670     0.91800
C859        C  0.44064401  0.74338158  0.50930635     0.84000
C860        C  0.05993040  0.74478525  0.50876938     0.90300
O861        O  0.20742707  0.97965221  0.51082684    -0.73500
O862        O  0.29811307  0.98398832  0.51056801    -0.74500
O863        O  0.25277483  0.98781209  0.54483414    -0.63100
O864        O  0.25297881  0.97515821  0.47666495    -0.71500
O865        O  0.25127252  0.52477196  0.47130148    -0.71100
O866        O  0.25055396  0.53756949  0.54006972    -0.62300
O867        O  0.29601069  0.53370470  0.50572739    -0.74800
O868        O  0.20571747  0.52927740  0.50564961    -0.73600
Cu869      Cu  0.25289980  0.97995087  0.51091783     1.04600
Cu870      Cu  0.25077864  0.53306983  0.50548297     1.04300
C871        C  0.19216667  0.00393996  0.50825436     0.92700
C872        C  0.31137284  0.00945976  0.50817261     0.91800
C873        C  0.25175703  0.51451590  0.55327832     0.84000
C874        C  0.25227062  0.99790025  0.46321009     0.90300
O875        O  0.25032829  0.77342271  0.47672820    -0.73500
O876        O  0.25059282  0.76543241  0.54548119    -0.74500
O877        O  0.29580848  0.76902131  0.51094331    -0.63100
O878        O  0.20515359  0.76970000  0.51124976    -0.71500
O879        O  0.20494478  0.71982034  0.50802409    -0.71100
O880        O  0.29549579  0.71911994  0.50790127    -0.62300
O881        O  0.25026571  0.71548831  0.54246282    -0.74800
O882        O  0.25005978  0.72348999  0.47352262    -0.73600
Cu883      Cu  0.25050509  0.77112302  0.51122985     1.04600
Cu884      Cu  0.25019555  0.71773940  0.50786283     1.04300
C885        C  0.25002879  0.74969699  0.46426624     0.92700
C886        C  0.25036525  0.73930485  0.55484395     0.91800
C887        C  0.31002078  0.74397894  0.50935062     0.84000
C888        C  0.19067379  0.74482251  0.50962019     0.90300
O889        O  0.02013319  0.95486389  0.00536795    -0.73500
O890        O  0.02017042  0.54608238  0.00434771    -0.74500
O891        O  0.02547773  0.50120225  0.03888866    -0.63100
O892        O  0.01640980  0.49962044  0.97068646    -0.71500
O893        O  0.47950264  0.50174985  0.97383053    -0.71100
O894        O  0.48080968  0.50084685  0.04421092    -0.62300
O895        O  0.47856806  0.54600460  0.00941543    -0.74800
O896        O  0.47890827  0.95653824  0.00866234    -0.73600
Cu897      Cu  0.02230923  0.50044872  0.00468206     1.04600
Cu898      Cu  0.47764657  0.50126952  0.00904886     1.04300
C899        C  0.99497566  0.94081257  0.00724265     0.92700
C900        C  0.99501191  0.56015978  0.00616867     0.91800
C901        C  0.00221810  0.50145855  0.05178348     0.84000
C902        C  0.99030867  0.49924261  0.96138009     0.90300
O903        O  0.46795633  0.75062048  0.97563027    -0.73500
O904        O  0.46999588  0.75213963  0.04372560    -0.74500
O905        O  0.47049960  0.79726492  0.00904451    -0.63100
O906        O  0.47018198  0.70546135  0.01023604    -0.71500
O907        O  0.01593413  0.70546766  0.00947456    -0.71100
O908        O  0.01591258  0.79550112  0.00865638    -0.62300
O909        O  0.01331654  0.75121865  0.04389658    -0.74800
O910        O  0.01727960  0.74982317  0.97433243    -0.73600
Cu911      Cu  0.46792351  0.75137796  0.00969925     1.04600
Cu912      Cu  0.01736134  0.75049623  0.00917482     1.04300
C913        C  0.99248298  0.74959569  0.96299790     0.92700
C914        C  0.98744820  0.75149134  0.05376640     0.91800
C915        C  0.99112795  0.81016434  0.00783174     0.84000
C916        C  0.99116437  0.69079583  0.00859179     0.90300
O917        O  0.21308264  0.50020368  0.04351331    -0.73500
O918        O  0.20927165  0.50123158  0.97497154    -0.74500
O919        O  0.21166347  0.95508786  0.00903581    -0.63100
O920        O  0.21212574  0.54632595  0.00958799    -0.71500
O921        O  0.26215772  0.54556214  0.00825902    -0.71100
O922        O  0.26168777  0.95555366  0.00754239    -0.62300
O923        O  0.25933108  0.50111477  0.97306254    -0.74800
O924        O  0.26320217  0.49996778  0.04263283    -0.73600
Cu925      Cu  0.20981090  0.50073118  0.00930336     1.04600
Cu926      Cu  0.26335635  0.50055303  0.00779040     1.04300
C927        C  0.23839325  0.49981220  0.05395203     0.92700
C928        C  0.23349062  0.50137342  0.96313744     0.91800
C929        C  0.23688198  0.94094552  0.00835744     0.84000
C930        C  0.23743057  0.56031294  0.00907152     0.90300
O931        O  0.21261915  0.74991780  0.04230125    -0.73500
O932        O  0.22184080  0.75107804  0.97302997    -0.74500
O933        O  0.21678403  0.70556888  0.00731258    -0.63100
O934        O  0.21627256  0.79554514  0.00795210    -0.71500
O935        O  0.26610662  0.79629903  0.01157082    -0.71100
O936        O  0.26660547  0.70505869  0.01105740    -0.62300
O937        O  0.27165825  0.75114122  0.97729667    -0.74800
O938        O  0.26254680  0.75009629  0.04547331    -0.73600
Cu939      Cu  0.21513738  0.75053627  0.00750415     1.04600
Cu940      Cu  0.26845607  0.75067888  0.01148467     1.04300
C941        C  0.23644197  0.74957946  0.05476194     0.92700
C942        C  0.24844068  0.75129599  0.96435745     0.91800
C943        C  0.24148606  0.69094121  0.00919308     0.84000
C944        C  0.24089820  0.81029689  0.00976632     0.90300
O945        O  0.46513596  0.50083434  0.88536206    -0.73500
O946        O  0.47537765  0.50159022  0.81705344    -0.74500
O947        O  0.47081332  0.95525363  0.85107254    -0.63100
O948        O  0.47159294  0.54673852  0.85142363    -0.71500
O949        O  0.03525532  0.54169709  0.85131218    -0.71100
O950        O  0.03417963  0.95132977  0.85141653    -0.62300
O951        O  0.03338926  0.49622794  0.81669531    -0.74800
O952        O  0.03554601  0.49646970  0.88580774    -0.73600
Cu953      Cu  0.46897999  0.50109029  0.85106469     1.04600
Cu954      Cu  0.03630801  0.49639793  0.85124061     1.04300
C955        C  0.48832645  0.50120365  0.89833259     0.92700
C956        C  0.50155281  0.50045771  0.80794184     0.91800
C957        C  0.49590820  0.94112318  0.85340150     0.84000
C958        C  0.49698595  0.56048045  0.85288373     0.90300
O959        O  0.48246469  0.75027119  0.88999589    -0.73500
O960        O  0.47427521  0.75064481  0.82066317    -0.74500
O961        O  0.47782792  0.70570642  0.85512921    -0.63100
O962        O  0.47706797  0.79548761  0.85551682    -0.71500
O963        O  0.03584088  0.79242242  0.85301403    -0.71100
O964        O  0.03693790  0.70161018  0.85267151    -0.62300
O965        O  0.03371640  0.74772548  0.81833793    -0.74800
O966        O  0.03943932  0.74692936  0.88738882    -0.73600
Cu967      Cu  0.47618572  0.75050243  0.85547218     1.04600
Cu968      Cu  0.03825608  0.74713698  0.85276958     1.04300
C969        C  0.50885583  0.74999222  0.89907761     0.92700
C970        C  0.49840568  0.75217067  0.80860365     0.91800
C971        C  0.50250493  0.69112230  0.85314220     0.84000
C972        C  0.50159298  0.81050006  0.85436171     0.90300
O973        O  0.22629507  0.50295303  0.88881395    -0.73500
O974        O  0.22154658  0.50274881  0.81942987    -0.74500
O975        O  0.22341560  0.95800247  0.85415127    -0.63100
O976        O  0.22316073  0.54804687  0.85402337    -0.71500
O977        O  0.27320545  0.54886205  0.85301142    -0.71100
O978        O  0.27338093  0.95768677  0.85173700    -0.62300
O979        O  0.27162018  0.50462395  0.81799792    -0.74800
O980        O  0.27633150  0.50240795  0.88661987    -0.73600
Cu981      Cu  0.22190077  0.50294663  0.85418159     1.04600
Cu982      Cu  0.27541736  0.50337142  0.85225393     1.04300
C983        C  0.25221758  0.50248497  0.89859271     0.92700
C984        C  0.24607581  0.50401162  0.80784537     0.91800
C985        C  0.24824088  0.94346900  0.85295080     0.84000
C986        C  0.24789774  0.56282358  0.85354113     0.90300
O987        O  0.21270352  0.75237235  0.88575722    -0.73500
O988        O  0.22445544  0.75464578  0.81775782    -0.74500
O989        O  0.21920240  0.70768952  0.85108288    -0.63100
O990        O  0.21936137  0.79885906  0.85248280    -0.71500
O991        O  0.26916977  0.79801708  0.85632085    -0.71100
O992        O  0.26877350  0.70797536  0.85644544    -0.62300
O993        O  0.27429523  0.75266361  0.82187552    -0.74800
O994        O  0.26238658  0.75292633  0.89080278    -0.73600
Cu995      Cu  0.21719779  0.75336115  0.85159725     1.04600
Cu996      Cu  0.27038903  0.75289527  0.85655853     1.04300
C997        C  0.23556807  0.75246609  0.89906545     0.92700
C998        C  0.25087100  0.75403389  0.80903614     0.91800
C999        C  0.24416606  0.69346041  0.85367808     0.84000
C1000       C  0.24455656  0.81281247  0.85438043     0.90300
O1001       O  0.04635570  0.98190824  0.65986874    -0.73500
O1002       O  0.45551848  0.96886474  0.66595375    -0.74500
O1003       O  0.49935971  0.96656944  0.62995705    -0.63100
O1004       O  0.50336568  0.97116480  0.69897941    -0.71500
O1005       O  0.50123747  0.52088109  0.69721789    -0.71100
O1006       O  0.50005709  0.51662293  0.62822395    -0.62300
O1007       O  0.45556315  0.51862213  0.66334452    -0.74800
O1008       O  0.04623880  0.53204971  0.66303939    -0.73600
Cu1009     Cu  0.50120363  0.96723067  0.66454639     1.04600
Cu1010     Cu  0.50066355  0.52055868  0.66267669     1.04300
C1011       C  0.06064114  0.50710390  0.66129511     0.92700
C1012       C  0.44114586  0.49374705  0.66502427     0.91800
C1013       C  0.49951293  0.49095580  0.61814692     0.84000
C1014       C  0.50283085  0.49651938  0.70894831     0.90300
O1015       O  0.45595558  0.78312545  0.66418502    -0.73500
O1016       O  0.04647878  0.77960717  0.66478320    -0.74500
O1017       O  0.50215326  0.78403937  0.63039403    -0.63100
O1018       O  0.50063258  0.78145985  0.69929568    -0.71500
O1019       O  0.49867285  0.73138363  0.69828764    -0.71100
O1020       O  0.50234328  0.73394234  0.62917213    -0.62300
O1021       O  0.04616966  0.72956985  0.66358052    -0.74800
O1022       O  0.45556788  0.73311920  0.66244922    -0.73600
Cu1023     Cu  0.50138387  0.78445897  0.66487971     1.04600
Cu1024     Cu  0.50073877  0.73091634  0.66370236     1.04300
C1025       C  0.44138640  0.75824162  0.66306134     0.92700
C1026       C  0.06068902  0.75451562  0.66425689     0.91800
C1027       C  0.50238452  0.75948117  0.61890595     0.84000
C1028       C  0.49908472  0.75606831  0.70966233     0.90300
O1029       O  0.25085831  0.52736509  0.69724849    -0.73500
O1030       O  0.25294822  0.52348108  0.62797857    -0.74500
O1031       O  0.20663324  0.52787193  0.66173419    -0.63100
O1032       O  0.29709862  0.52315026  0.66366325    -0.71500
O1033       O  0.29478033  0.97335476  0.66651682    -0.71100
O1034       O  0.20439053  0.97778825  0.66240555    -0.62300
O1035       O  0.25199729  0.97338635  0.63012916    -0.74800
O1036       O  0.24643034  0.97749917  0.69879334    -0.73600
Cu1037     Cu  0.25199640  0.52723671  0.66259650     1.04600
Cu1038     Cu  0.24935195  0.97378954  0.66451378     1.04300
C1039       C  0.24786126  0.50301353  0.70884912     0.92700
C1040       C  0.25281703  0.49763688  0.61816297     0.91800
C1041       C  0.19115495  0.50352084  0.66168628     0.84000
C1042       C  0.31029889  0.49758424  0.66550096     0.90300
O1043       O  0.25122774  0.78118950  0.69948957    -0.73500
O1044       O  0.24977348  0.78335043  0.63072343    -0.74500
O1045       O  0.20525354  0.78116732  0.66561073    -0.63100
O1046       O  0.29596461  0.78290050  0.66450491    -0.71500
O1047       O  0.29665772  0.73287745  0.66312300    -0.71100
O1048       O  0.20620581  0.73112142  0.66509143    -0.62300
O1049       O  0.25019610  0.73325404  0.62948586    -0.74800
O1050       O  0.25323766  0.73112782  0.69884618    -0.73600
Cu1051     Cu  0.25051388  0.78386874  0.66512846     1.04600
Cu1052     Cu  0.25156835  0.73032716  0.66412471     1.04300
C1053       C  0.25272969  0.75596061  0.71007233     0.92700
C1054       C  0.24975412  0.75881748  0.61922841     0.91800
C1055       C  0.19135362  0.75586620  0.66541507     0.84000
C1056       C  0.31067899  0.75807669  0.66354442     0.90300
C1057       C  0.36029310  0.73106030  0.66201143    -0.13900
C1058       C  0.34410658  0.75833330  0.66298490     0.08200
C1059       C  0.36018985  0.78567820  0.66357043    -0.13900
C1060       C  0.39178233  0.78570837  0.66340766    -0.13900
C1061       C  0.40794447  0.75839767  0.66265623     0.08200
C1062       C  0.39182519  0.73109094  0.66184248    -0.13900
H1063       H  0.34860694  0.70959255  0.66149442     0.12200
H1064       H  0.34838262  0.80707125  0.66427556     0.12200
H1065       H  0.40353441  0.80713318  0.66400801     0.12200
H1066       H  0.40356544  0.70965478  0.66122177     0.12200
C1067       C  0.10993744  0.78200855  0.66613174    -0.13900
C1068       C  0.09410679  0.75458628  0.66453840     0.08200
C1069       C  0.11052636  0.72747414  0.66334568    -0.13900
C1070       C  0.14211808  0.72782387  0.66374398    -0.13900
C1071       C  0.15791666  0.75529369  0.66533602     0.08200
C1072       C  0.14144962  0.78235722  0.66652246    -0.13900
H1073       H  0.09798377  0.80330307  0.66710787     0.12200
H1074       H  0.09898671  0.70598113  0.66208237     0.12200
H1075       H  0.15415454  0.70658134  0.66272023     0.12200
H1076       H  0.15290443  0.80389826  0.66774269     0.12200
C1077       C  0.39072859  0.46750057  0.66669714    -0.13900
C1078       C  0.40765687  0.49433513  0.66588057     0.08200
C1079       C  0.39222373  0.02225674  0.66561703    -0.13900
C1080       C  0.36071113  0.02319609  0.66580895    -0.13900
C1081       C  0.34375285  0.49627882  0.66624307     0.08200
C1082       C  0.35909107  0.46846466  0.66687923    -0.13900
H1083       H  0.40190574  0.44575622  0.66696992     0.12200
H1084       H  0.40450452  0.04338925  0.66509777     0.12200
H1085       H  0.34964483  0.04499794  0.66540249     0.12200
H1086       H  0.34665958  0.44741725  0.66725787     0.12200
C1087       C  0.10948023  0.97877937  0.65989120    -0.13900
C1088       C  0.09403674  0.50668646  0.66094062     0.08200
C1089       C  0.11085243  0.53356546  0.66186071    -0.13900
C1090       C  0.14245512  0.53265826  0.66188026    -0.13900
C1091       C  0.15778708  0.50485853  0.66104390     0.08200
C1092       C  0.14094104  0.97790847  0.65999210    -0.13900
H1093       H  0.09725464  0.95762253  0.65920176     0.12200
H1094       H  0.09961976  0.55525989  0.66266047     0.12200
H1095       H  0.15485742  0.55369917  0.66273932     0.12200
H1096       H  0.15204905  0.95613888  0.65936225     0.12200
C1097       C  0.26908400  0.73282260  0.77168701    -0.13900
C1098       C  0.25374777  0.75542259  0.78389561     0.08200
C1099       C  0.23886339  0.77843355  0.77182078    -0.13900
C1100       C  0.23919823  0.77889106  0.74781521    -0.13900
C1101       C  0.25360162  0.75577429  0.73545778     0.08200
C1102       C  0.26863363  0.73274188  0.74756728    -0.13900
H1103       H  0.28043534  0.71473649  0.78079155     0.12200
H1104       H  0.22683118  0.79598641  0.78101878     0.12200
H1105       H  0.22744416  0.79687675  0.73889224     0.12200
H1106       H  0.28007731  0.71480582  0.73838349     0.12200
C1107       C  0.21970032  0.89466654  0.85259149    -0.13900
C1108       C  0.24750654  0.91003687  0.85315162     0.08200
C1109       C  0.27430175  0.89315246  0.85422930    -0.13900
C1110       C  0.27329977  0.86159819  0.85477602    -0.13900
C1111       C  0.24548270  0.84624143  0.85414986     0.08200
C1112       C  0.21870406  0.86314173  0.85304238    -0.13900
H1113       H  0.19860881  0.90699865  0.85176219     0.12200
H1114       H  0.29605161  0.90430720  0.85476232     0.12200
H1115       H  0.29437139  0.84923454  0.85560679     0.12200
H1116       H  0.19693298  0.85202469  0.85253313     0.12200
C1117       C  0.27373356  0.61314186  0.85490032    -0.13900
C1118       C  0.24698557  0.59624187  0.85354275     0.08200
C1119       C  0.21920794  0.61158946  0.85215257    -0.13900
C1120       C  0.21820631  0.64314315  0.85210215    -0.13900
C1121       C  0.24495350  0.66003512  0.85353726     0.08200
C1122       C  0.27272477  0.64467209  0.85494869    -0.13900
H1123       H  0.29546993  0.60202088  0.85600571     0.12200
H1124       H  0.19816896  0.59921776  0.85103942     0.12200
H1125       H  0.19648177  0.65428638  0.85101713     0.12200
H1126       H  0.29378421  0.65701239  0.85605978     0.12200
C1127       C  0.26549602  0.52333642  0.77043190    -0.13900
C1128       C  0.24524985  0.50480340  0.78253538     0.08200
C1129       C  0.22488177  0.98669090  0.77026408    -0.13900
C1130       C  0.22578380  0.98603251  0.74619778    -0.13900
C1131       C  0.24631147  0.50426540  0.73411910     0.08200
C1132       C  0.26565007  0.52346514  0.74638691    -0.13900
H1133       H  0.28111852  0.53779623  0.77960911     0.12200
H1134       H  0.20899580  0.97234851  0.77928988     0.12200
H1135       H  0.21040093  0.97136195  0.73698141     0.12200
H1136       H  0.28149342  0.53786904  0.73737107     0.12200
C1137       C  0.47914260  0.73368961  0.77069014    -0.13900
C1138       C  0.49694282  0.75390270  0.78337435     0.08200
C1139       C  0.02183203  0.77024128  0.77120132    -0.13900
C1140       C  0.01969435  0.77202261  0.74724753    -0.13900
C1141       C  0.49799819  0.75537329  0.73497812     0.08200
C1142       C  0.48006520  0.73408252  0.74659409    -0.13900
H1143       H  0.46531709  0.71706992  0.77940879     0.12200
H1144       H  0.03537553  0.78668681  0.78035880     0.12200
H1145       H  0.03189183  0.78966534  0.73828588     0.12200
H1146       H  0.46660310  0.71798680  0.73702604     0.12200
C1147       C  0.03675950  0.88782198  0.85200502    -0.13900
C1148       C  0.49705910  0.90769295  0.85354727     0.08200
C1149       C  0.47052668  0.89039287  0.85359186    -0.13900
C1150       C  0.47206098  0.85884527  0.85398461    -0.13900
C1151       C  0.50016070  0.84391936  0.85422289     0.08200
C1152       C  0.03716418  0.85630456  0.85255940    -0.13900
H1153       H  0.05809224  0.89976749  0.85168804     0.12200
H1154       H  0.44859288  0.90121046  0.85342988     0.12200
H1155       H  0.45116821  0.84614457  0.85402193     0.12200
H1156       H  0.05876541  0.84483543  0.85261476     0.12200
C1157       C  0.03859123  0.60566249  0.85228943    -0.13900
C1158       C  0.49838750  0.59390656  0.85275556     0.08200
C1159       C  0.47188385  0.61121126  0.85180057    -0.13900
C1160       C  0.47336570  0.64272152  0.85186128    -0.13900
C1161       C  0.50139623  0.65769377  0.85278897     0.08200
C1162       C  0.03900750  0.63724008  0.85276904    -0.13900
H1163       H  0.05984020  0.59364517  0.85118197     0.12200
H1164       H  0.44995704  0.60042505  0.85108244     0.12200
H1165       H  0.45245143  0.65536441  0.85115159     0.12200
H1166       H  0.06054438  0.64877610  0.85198945     0.12200
C1167       C  0.02348820  0.97827451  0.76790894    -0.13900
C1168       C  0.50385274  0.50047144  0.78270366     0.08200
C1169       C  0.48737532  0.52167955  0.76988894    -0.13900
C1170       C  0.48773601  0.52082754  0.74586490    -0.13900
C1171       C  0.50372701  0.49808785  0.73428331     0.08200
C1172       C  0.02160241  0.97904925  0.74387333    -0.13900
H1173       H  0.03743375  0.96131057  0.77613333     0.12200
H1174       H  0.47419553  0.53890116  0.77851550     0.12200
H1175       H  0.47480817  0.53741851  0.73633579     0.12200
H1176       H  0.03437001  0.96283890  0.73387027     0.12200
C1177       C  0.25320219  0.75175983  0.93926213    -0.17000
C1178       C  0.23037123  0.75201313  0.92413254    -0.32200
H1179       H  0.27637018  0.75191239  0.93309211     0.12000
H1180       H  0.20717756  0.75183003  0.93024251     0.12600
C1181       C  0.26560294  0.89222064  0.00911660    -0.13900
C1182       C  0.23773769  0.90751655  0.00869635     0.08200
C1183       C  0.21096536  0.89055728  0.00881512    -0.13900
C1184       C  0.21204883  0.85900995  0.00923079    -0.13900
C1185       C  0.23992649  0.84372477  0.00962337     0.08200
C1186       C  0.26668398  0.86069318  0.00961219    -0.13900
H1187       H  0.28668106  0.90461326  0.00910001     0.12200
H1188       H  0.18916555  0.90163985  0.00854740     0.12200
H1189       H  0.19098383  0.84659438  0.00925647     0.12200
H1190       H  0.28849078  0.84962470  0.00987107     0.12200
C1191       C  0.26623328  0.60898835  0.01066229    -0.13900
C1192       C  0.23839894  0.59372987  0.00935448     0.08200
C1193       C  0.21169282  0.61071717  0.00815495    -0.13900
C1194       C  0.21279140  0.64224458  0.00808240    -0.13900
C1195       C  0.24061965  0.65751742  0.00929039     0.08200
C1196       C  0.26732760  0.64053762  0.01066795    -0.13900
H1197       H  0.28724817  0.59655088  0.01168538     0.12200
H1198       H  0.18992074  0.59966515  0.00713182     0.12200
H1199       H  0.19175914  0.65465270  0.00706929     0.12200
H1200       H  0.28909251  0.65160590  0.01168239     0.12200
C1201       C  0.25498674  0.50199932  0.92389956    -0.17000
C1202       C  0.23085355  0.50187025  0.93782662    -0.32200
H1203       H  0.27756333  0.50169534  0.93122805     0.12000
H1204       H  0.20810779  0.00208806  0.93052164     0.12600
C1205       C  0.51282881  0.74981189  0.92430617    -0.17000
C1206       C  0.99209945  0.74889598  0.93766532    -0.32200
H1207       H  0.03926835  0.74779413  0.93266818     0.12000
H1208       H  0.46644290  0.75008918  0.93166863     0.12600
C1209       C  0.47349287  0.89361848  0.00842716    -0.13900
C1210       C  0.99409282  0.90739100  0.00737002     0.08200
C1211       C  0.02087746  0.89045063  0.00754542    -0.13900
C1212       C  0.01983847  0.85891114  0.00769286    -0.13900
C1213       C  0.99198773  0.84359370  0.00758954     0.08200
C1214       C  0.47148332  0.86211879  0.00853092    -0.13900
H1215       H  0.45276118  0.90657711  0.00883161     0.12200
H1216       H  0.04266745  0.90154877  0.00764840     0.12200
H1217       H  0.04092572  0.84652885  0.00788454     0.12200
H1218       H  0.44939005  0.85165468  0.00901139     0.12200
C1219       C  0.02090424  0.61054576  0.00600766    -0.13900
C1220       C  0.99413428  0.59359375  0.00646133     0.08200
C1221       C  0.47306847  0.60897824  0.01097986    -0.13900
C1222       C  0.47105336  0.64049281  0.01110118    -0.13900
C1223       C  0.99204951  0.65737167  0.00803507     0.08200
C1224       C  0.01987472  0.64207562  0.00682580    -0.13900
H1225       H  0.04267623  0.59946315  0.00514249     0.12200
H1226       H  0.45237355  0.59600782  0.01184764     0.12200
H1227       H  0.44899324  0.65098010  0.01204774     0.12200
H1228       H  0.04094488  0.65447233  0.00644283     0.12200
C1229       C  0.98772261  0.49821701  0.93605383    -0.17000
C1230       C  0.48391845  0.50140108  0.92357672    -0.32200
H1231       H  0.96516598  0.99876511  0.92841579     0.12000
H1232       H  0.46106764  0.50065954  0.93035597     0.12600
C1233       C  0.24941127  0.76076399  0.59391212    -0.17000
C1234       C  0.25021184  0.73639731  0.58016225    -0.32200
H1235       H  0.24877445  0.78321484  0.58637184     0.12000
H1236       H  0.25080545  0.71388527  0.58758725     0.12600
C1237       C  0.25186205  0.51867702  0.57852458    -0.17000
C1238       C  0.25344299  0.49490516  0.59288571    -0.32200
H1239       H  0.25042556  0.54145805  0.58536455     0.12000
H1240       H  0.25469990  0.97209178  0.58591735     0.12600
C1241       C  0.35944403  0.71636168  0.50920414    -0.13900
C1242       C  0.34344098  0.74377687  0.50918169     0.08200
C1243       C  0.35968569  0.77102676  0.50902128    -0.13900
C1244       C  0.39122904  0.77087656  0.50900304    -0.13900
C1245       C  0.40723612  0.74347438  0.50915688     0.08200
C1246       C  0.39100493  0.71621103  0.50919302    -0.13900
H1247       H  0.34759146  0.69497665  0.50933237     0.12200
H1248       H  0.34803405  0.79252577  0.50889986     0.12200
H1249       H  0.40306588  0.79227079  0.50887040     0.12200
H1250       H  0.40267477  0.69472059  0.50930938     0.12200
C1251       C  0.10947468  0.77198881  0.51181785    -0.13900
C1252       C  0.09338524  0.74488143  0.50895553     0.08200
C1253       C  0.10958366  0.71780011  0.50640376    -0.13900
C1254       C  0.14113370  0.71780849  0.50667087    -0.13900
C1255       C  0.15723274  0.74490064  0.50949554     0.08200
C1256       C  0.14105474  0.77199781  0.51208247    -0.13900
H1257       H  0.09767520  0.79323273  0.51388983     0.12200
H1258       H  0.09788962  0.69653001  0.50417045     0.12200
H1259       H  0.15290519  0.69654741  0.50460728     0.12200
H1260       H  0.15278182  0.79324998  0.51432415     0.12200
C1261       C  0.50110775  0.73664796  0.58004430    -0.17000
C1262       C  0.50240557  0.76121886  0.59358139    -0.32200
H1263       H  0.50042616  0.71425054  0.58766450     0.12000
H1264       H  0.00061751  0.78306289  0.58605187     0.12600
C1265       C  0.39330871  0.98540710  0.50832952    -0.13900
C1266       C  0.40851146  0.01328019  0.50850399     0.08200
C1267       C  0.39154279  0.54019286  0.50852152    -0.13900
C1268       C  0.35994628  0.53901377  0.50832365    -0.13900
C1269       C  0.34475102  0.01093651  0.50819172     0.08200
C1270       C  0.36184089  0.98425400  0.50821685    -0.13900
H1271       H  0.40572489  0.96433974  0.50831900     0.12200
H1272       H  0.40257984  0.56200847  0.50872510     0.12200
H1273       H  0.34736414  0.55998274  0.50842867     0.12200
H1274       H  0.35090805  0.96238329  0.50809199     0.12200
C1275       C  0.11154714  0.97476875  0.50843218    -0.13900
C1276       C  0.09491880  0.00180294  0.50769465     0.08200
C1277       C  0.11063688  0.52945210  0.50738640    -0.13900
C1278       C  0.14214768  0.53004343  0.50753013    -0.13900
C1279       C  0.15874010  0.00300935  0.50821826     0.08200
C1280       C  0.14315221  0.97536723  0.50876893    -0.13900
H1281       H  0.10014698  0.95314496  0.50882294     0.12200
H1282       H  0.09852168  0.55068144  0.50678651     0.12200
H1283       H  0.15343768  0.55172519  0.50709735     0.12200
H1284       H  0.15536090  0.95419116  0.50932553     0.12200
C1285       C  0.50107092  0.51405988  0.57961921    -0.17000
C1286       C  0.49934955  0.48917053  0.59275564    -0.32200
H1287       H  0.50223488  0.53613389  0.58773357     0.12000
H1288       H  0.99921937  0.03631916  0.58481313     0.12600
C1289       C  0.24796158  0.72905174  0.42485550    -0.17000
C1290       C  0.24954970  0.75299464  0.43899214    -0.32200
H1291       H  0.24709759  0.70638916  0.43199959     0.12000
H1292       H  0.25038674  0.77567783  0.43188745     0.12600
C1293       C  0.25328740  0.01531905  0.42287894    -0.17000
C1294       C  0.25270644  0.99257584  0.43812770    -0.32200
H1295       H  0.25347557  0.03852108  0.42895745     0.12000
H1296       H  0.25274656  0.46931668  0.43210883     0.12600
C1297       C  0.49930603  0.72734083  0.42445470    -0.17000
C1298       C  0.49979435  0.75115187  0.43879024    -0.32200
H1299       H  0.49935019  0.70454346  0.43136962     0.12000
H1300       H  0.99915640  0.77600974  0.43134165     0.12600
C1301       C  0.38854095  0.76397595  0.35560142    -0.13900
C1302       C  0.40483706  0.73678538  0.35464323     0.08200
C1303       C  0.38888669  0.70936571  0.35377066    -0.13900
C1304       C  0.35733423  0.70915237  0.35384235    -0.13900
C1305       C  0.34103817  0.73635403  0.35476300     0.08200
C1306       C  0.35699059  0.76376389  0.35565314    -0.13900
H1307       H  0.40015378  0.78547469  0.35625929     0.12200
H1308       H  0.40077200  0.68801633  0.35302574     0.12200
H1309       H  0.34572253  0.68765427  0.35313581     0.12200
H1310       H  0.34510583  0.78511443  0.35635572     0.12200
C1311       C  0.10731950  0.76420381  0.35557595    -0.13900
C1312       C  0.09096220  0.73726115  0.35276186     0.08200
C1313       C  0.10689433  0.71000406  0.35024856    -0.13900
C1314       C  0.13847344  0.70969389  0.35056751    -0.13900
C1315       C  0.15481704  0.73663803  0.35339195     0.08200
C1316       C  0.13887217  0.76389569  0.35588332    -0.13900
H1317       H  0.09575126  0.78558300  0.35760567     0.12200
H1318       H  0.09496988  0.68885421  0.34806437     0.12200
H1319       H  0.15007376  0.68832754  0.34858462     0.12200
H1320       H  0.15076454  0.78505770  0.35811756     0.12200
C1321       C  0.50034776  0.99322743  0.42442965    -0.17000
C1322       C  0.50128334  0.01759720  0.43809736    -0.32200
H1323       H  0.49950392  0.97076635  0.43193491     0.12000
H1324       H  0.00287347  0.53642068  0.43021771     0.12600
C1325       C  0.36193861  0.97494990  0.35294260    -0.13900
C1326       C  0.34633608  0.00258058  0.35155927     0.08200
C1327       C  0.36290609  0.52931083  0.34988534    -0.13900
C1328       C  0.39448852  0.52855404  0.34987527    -0.13900
C1329       C  0.41020471  0.00106055  0.35135623     0.08200
C1330       C  0.39349583  0.97419376  0.35278388    -0.13900
H1331       H  0.34976492  0.95381237  0.35422605     0.12200
H1332       H  0.35159930  0.55093635  0.34867279     0.12200
H1333       H  0.40671092  0.54966877  0.34863630     0.12200
H1334       H  0.40479554  0.95256983  0.35404938     0.12200
C1335       C  0.11165674  0.52803193  0.35474479    -0.13900
C1336       C  0.09620846  0.00062146  0.35337779     0.08200
C1337       C  0.11287193  0.97367693  0.35211628    -0.13900
C1338       C  0.14443389  0.97432600  0.35218521    -0.13900
C1339       C  0.16002438  0.00194197  0.35342000     0.08200
C1340       C  0.14320772  0.52870430  0.35472495    -0.13900
H1341       H  0.09948332  0.54919311  0.35581362     0.12200
H1342       H  0.10154259  0.95206181  0.35096607     0.12200
H1343       H  0.15661854  0.95317451  0.35107008     0.12200
H1344       H  0.15452872  0.55032646  0.35583769     0.12200
C1345       C  0.25852487  0.74670251  0.09360266    -0.17000
C1346       C  0.23385361  0.74840093  0.08010141    -0.32200
H1347       H  0.28085034  0.74631563  0.08584541     0.12000
H1348       H  0.21146042  0.74881388  0.08772878     0.12600
C1349       C  0.23462661  0.76449401  0.24738837    -0.13900
C1350       C  0.25330569  0.74454872  0.23514411     0.08200
C1351       C  0.27065037  0.72330988  0.24722829    -0.13900
C1352       C  0.26886821  0.72159253  0.27121269    -0.13900
C1353       C  0.25053115  0.74179362  0.28352860     0.08200
C1354       C  0.23368487  0.76350731  0.27146564    -0.13900
H1355       H  0.22109917  0.78105572  0.23832555     0.12200
H1356       H  0.28504537  0.70761603  0.23805658     0.12200
H1357       H  0.28214854  0.70475169  0.28019100     0.12200
H1358       H  0.21933515  0.77923478  0.28063766     0.12200
C1359       C  0.26309421  0.49828514  0.09226916    -0.17000
C1360       C  0.23802038  0.49903300  0.07929941    -0.32200
H1361       H  0.28530169  0.99835597  0.08416490     0.12000
H1362       H  0.21600327  0.49889753  0.08756421     0.12600
C1363       C  0.23048056  0.88664402  0.16113825    -0.13900
C1364       C  0.25805459  0.90233558  0.16210287     0.08200
C1365       C  0.28505180  0.88577572  0.16353795    -0.13900
C1366       C  0.28447207  0.85423338  0.16416657    -0.13900
C1367       C  0.25688075  0.83855193  0.16336458     0.08200
C1368       C  0.22990177  0.85510974  0.16175639    -0.13900
H1369       H  0.20926910  0.89872688  0.16000684     0.12200
H1370       H  0.30665916  0.89717865  0.16432410     0.12200
H1371       H  0.30567546  0.84214372  0.16534097     0.12200
H1372       H  0.20828602  0.84371679  0.16102018     0.12200
C1373       C  0.28407690  0.63665136  0.16518213    -0.13900
C1374       C  0.25644196  0.65234206  0.16489388     0.08200
C1375       C  0.22942444  0.63575099  0.16481343    -0.06700
C1376       C  0.23003713  0.60418890  0.16477558    -0.13900
C1377       C  0.25767920  0.58850576  0.16484466     0.08200
C1378       C  0.28468876  0.60509824  0.16517207    -0.13900
H1379       H  0.30532513  0.64874988  0.16532064     0.12200
H1380       H  0.20778088  0.64713770  0.16467376     0.12200
H1381       H  0.20879650  0.59207732  0.16460224     0.12200
H1382       H  0.30633714  0.59371942  0.16526153     0.12200
C1383       C  0.23313528  0.51137696  0.24517695    -0.13900
C1384       C  0.25454726  0.99346492  0.23377776     0.08200
C1385       C  0.27451228  0.97560118  0.24674695    -0.13900
C1386       C  0.27308640  0.97574499  0.27083035    -0.13900
C1387       C  0.25241278  0.99456747  0.28219236     0.08200
C1388       C  0.23245065  0.51231794  0.26919397    -0.13900
H1389       H  0.21761520  0.52540964  0.23550606     0.12200
H1390       H  0.29103579  0.96143944  0.23823953     0.12200
H1391       H  0.28875383  0.96198095  0.28058347     0.12200
H1392       H  0.21637373  0.52701207  0.27768104     0.12200
C1393       C  0.00865769  0.75406501  0.09309876    -0.17000
C1394       C  0.98469066  0.75241508  0.07904929    -0.32200
H1395       H  0.03131024  0.75463133  0.08592182     0.12000
H1396       H  0.47024821  0.75317911  0.08740106     0.12600
C1397       C  0.47723098  0.73304354  0.24594432    -0.13900
C1398       C  0.49797877  0.75247338  0.23525490     0.08200
C1399       C  0.01376085  0.77053102  0.24766666    -0.13900
C1400       C  0.01352099  0.76844418  0.27167682    -0.13900
C1401       C  0.49673202  0.74719754  0.28355650     0.08200
C1402       C  0.47698787  0.73002198  0.26992852    -0.13900
H1403       H  0.46200544  0.71941714  0.23570576     0.12200
H1404       H  0.02812869  0.78714866  0.23946161     0.12200
H1405       H  0.02774377  0.78345434  0.28162523     0.12200
H1406       H  0.46133065  0.71437467  0.27786206     0.12200
C1407       C  0.00684684  0.50207512  0.07690725    -0.17000
C1408       C  0.98388203  0.50217896  0.09192314    -0.32200
H1409       H  0.53291312  0.99999777  0.08622219     0.12000
H1410       H  0.96075457  0.50181111  0.08567146     0.12600
C1411       C  0.02464318  0.89553938  0.16249981    -0.13900
C1412       C  0.50140336  0.91043015  0.16544639     0.08200
C1413       C  0.47475824  0.89329927  0.16580080    -0.13900
C1414       C  0.47605661  0.86174758  0.16548623    -0.13900
C1415       C  0.50403170  0.84663466  0.16494425     0.08200
C1416       C  0.02555860  0.86400975  0.16281209    -0.13900
H1417       H  0.04573190  0.90778476  0.16113186     0.12200
H1418       H  0.45289836  0.90425592  0.16615974     0.12200
H1419       H  0.45507986  0.84918928  0.16571392     0.12200
H1420       H  0.04725450  0.85282921  0.16161636     0.12200
C1421       C  0.02604073  0.61250502  0.16274188    -0.13900
C1422       C  0.50210045  0.59664600  0.16443477     0.08200
C1423       C  0.47550908  0.61382047  0.16546686    -0.13900
C1424       C  0.47684961  0.64533439  0.16568633    -0.13900
C1425       C  0.50482025  0.66041821  0.16499463     0.08200
C1426       C  0.02701277  0.64406130  0.16329863    -0.13900
H1427       H  0.04706643  0.60008337  0.16375224     0.12200
H1428       H  0.45362612  0.60293028  0.16603351     0.12200
H1429       H  0.45588586  0.65789138  0.16643311     0.12200
H1430       H  0.04871618  0.65519032  0.16463171     0.12200
C1431       C  0.49382739  0.52790743  0.27127709    -0.13900
C1432       C  0.50848034  0.00477622  0.28326979     0.08200
C1433       C  0.02687013  0.98920216  0.26827180    -0.13900
C1434       C  0.02666717  0.98994498  0.24419344    -0.13900
C1435       C  0.50934301  0.00592062  0.23485943     0.08200
C1436       C  0.49389593  0.52821625  0.24723777    -0.13900
H1437       H  0.48159773  0.54532920  0.28045470     0.12200
H1438       H  0.04273826  0.97456731  0.27705391     0.12200
H1439       H  0.04221706  0.97572471  0.23473240     0.12200
H1440       H  0.48171129  0.54584874  0.23823412     0.12200
O1441       O  0.96583814  0.00289532  0.13017438    -0.73500
O1442       O  0.97608645  0.50658482  0.19827594    -0.74500
O1443       O  0.97222417  0.05001800  0.16285435    -0.63100
O1444       O  0.97115849  0.45888517  0.16545360    -0.71500
O1445       O  0.52494051  0.45843272  0.16265134    -0.71100
O1446       O  0.52540690  0.04830804  0.16219898    -0.62300
O1447       O  0.53009773  0.50336515  0.19697592    -0.74800
O1448       O  0.51854560  0.00289859  0.12790062    -0.73600
Cu1449     Cu  0.96974487  0.00460795  0.16436674     1.04600
Cu1450     Cu  0.52645518  0.50326961  0.16225320     1.04300
C1451       C  0.49177510  0.00250480  0.11947687     0.92700
C1452       C  0.00236003  0.50608652  0.20727830     0.91800
C1453       C  0.50089222  0.06323121  0.16412739     0.84000
C1454       C  0.50035592  0.44385708  0.16525107     0.90300
O1455       O  0.97289171  0.25190605  0.19708565    -0.73500
O1456       O  0.97936955  0.25488762  0.12784794    -0.74500
O1457       O  0.97618629  0.20879701  0.16138224    -0.63100
O1458       O  0.97500116  0.29883367  0.16345537    -0.71500
O1459       O  0.53050678  0.29933897  0.16604445    -0.71100
O1460       O  0.53093331  0.20798545  0.16692360    -0.62300
O1461       O  0.53628423  0.25311462  0.13223383    -0.74800
O1462       O  0.52663937  0.25450284  0.20079513    -0.73600
Cu1463     Cu  0.97413510  0.25365422  0.16235480     1.04600
Cu1464     Cu  0.53286312  0.25375122  0.16664373     1.04300
C1465       C  0.99710113  0.25272456  0.20907970     0.92700
C1466       C  0.51288656  0.25324009  0.11945036     0.91800
C1467       C  0.00105240  0.19437402  0.16281948     0.84000
C1468       C  0.99965761  0.31372908  0.16433447     0.90300
O1469       O  0.72305743  0.99809145  0.12770335    -0.73500
O1470       O  0.71895914  0.99637293  0.19721731    -0.74500
O1471       O  0.71995993  0.04206052  0.16318590    -0.63100
O1472       O  0.72029673  0.45220750  0.16184274    -0.71500
O1473       O  0.77034596  0.45139455  0.16274946    -0.71100
O1474       O  0.76993319  0.04276128  0.16541532    -0.62300
O1475       O  0.76906661  0.99477593  0.19828900    -0.74800
O1476       O  0.77309772  0.99878333  0.12988154    -0.73600
Cu1477     Cu  0.71886440  0.99717318  0.16242266     1.04600
Cu1478     Cu  0.77239999  0.99698805  0.16413942     1.04300
C1479       C  0.74898679  0.99882627  0.11792736     0.92700
C1480       C  0.74366032  0.99488847  0.20860269     0.91800
C1481       C  0.74461671  0.05678894  0.16462885     0.84000
C1482       C  0.74502996  0.43743684  0.16220283     0.90300
O1483       O  0.70822625  0.24641097  0.13217449    -0.73500
O1484       O  0.71944590  0.24900984  0.20041725    -0.74500
O1485       O  0.71481720  0.29307986  0.16533258    -0.63100
O1486       O  0.71445670  0.20169895  0.16719264    -0.71500
O1487       O  0.76403702  0.20208308  0.16195203    -0.71100
O1488       O  0.76464280  0.29194158  0.16170106    -0.62300
O1489       O  0.76926784  0.24681271  0.19638013    -0.74800
O1490       O  0.75794074  0.24694140  0.12739579    -0.73600
Cu1491     Cu  0.71247303  0.24752366  0.16644756     1.04600
Cu1492     Cu  0.76567239  0.24693647  0.16167868     1.04300
C1493       C  0.73120398  0.24664838  0.11896860     0.92700
C1494       C  0.74583136  0.24820088  0.20921219     0.91800
C1495       C  0.74010198  0.30687662  0.16335239     0.84000
C1496       C  0.73949427  0.18750392  0.16478107     0.90300
O1497       O  0.54866089  0.47465805  0.35465286    -0.73500
O1498       O  0.95760873  0.47492295  0.34832965    -0.74500
O1499       O  0.00548217  0.47832968  0.31553396    -0.63100
O1500       O  0.00134055  0.47056312  0.38407020    -0.71500
O1501       O  0.00200751  0.02059104  0.38763878    -0.71100
O1502       O  0.00383938  0.02862340  0.31847676    -0.62300
O1503       O  0.95786628  0.02497645  0.35220449    -0.74800
O1504       O  0.54834394  0.02486240  0.35594998    -0.73600
Cu1505     Cu  0.00319989  0.47290597  0.34968850     1.04600
Cu1506     Cu  0.00295662  0.02651757  0.35316585     1.04300
C1507       C  0.56277525  0.49982915  0.35553535     0.92700
C1508       C  0.94327276  0.49994626  0.34995237     0.91800
C1509       C  0.00511564  0.50440363  0.30618039     0.84000
C1510       C  0.00142731  0.49410298  0.39671527     0.90300
O1511       O  0.99816820  0.26719336  0.32051695    -0.73500
O1512       O  0.99834424  0.25925867  0.38948305    -0.74500
O1513       O  0.54318672  0.26218263  0.35599796    -0.63100
O1514       O  0.95282744  0.26372996  0.35515671    -0.71500
O1515       O  0.95226572  0.21378394  0.35258972    -0.71100
O1516       O  0.54321803  0.21253385  0.35113064    -0.62300
O1517       O  0.99861752  0.20935287  0.38608115    -0.74800
O1518       O  0.99586842  0.21731511  0.31718877    -0.73600
Cu1519     Cu  0.99820441  0.26496684  0.35511436     1.04600
Cu1520     Cu  0.99740657  0.21162195  0.35152520     1.04300
C1521       C  0.99665375  0.24352091  0.30799594     0.92700
C1522       C  0.99867290  0.23300390  0.39864885     0.91800
C1523       C  0.55757887  0.23738809  0.35348206     0.84000
C1524       C  0.93818542  0.23889691  0.35404419     0.90300
O1525       O  0.75459796  0.48272445  0.38894016    -0.73500
O1526       O  0.75136154  0.47319136  0.31981257    -0.74500
O1527       O  0.79814320  0.47759771  0.35300858    -0.63100
O1528       O  0.70794754  0.47742632  0.35567262    -0.71500
O1529       O  0.70744359  0.02749706  0.35240116    -0.71100
O1530       O  0.79827878  0.02759884  0.34865003    -0.62300
O1531       O  0.74979177  0.02343964  0.31645507    -0.74800
O1532       O  0.75512495  0.03262816  0.38466791    -0.73600
Cu1533     Cu  0.75307514  0.47598125  0.35450892     1.04600
Cu1534     Cu  0.75273312  0.02951091  0.35041103     1.04300
C1535       C  0.75508524  0.50931513  0.39758503     0.92700
C1536       C  0.74933590  0.49689896  0.30732191     0.91800
C1537       C  0.81250511  0.50233706  0.35030857     0.84000
C1538       C  0.69327121  0.50219598  0.35440652     0.90300
O1539       O  0.74723691  0.21003294  0.38637954    -0.73500
O1540       O  0.74977997  0.21755381  0.31758876    -0.74500
O1541       O  0.79342602  0.21423925  0.35288236    -0.63100
O1542       O  0.70294461  0.21352336  0.35111581    -0.71500
O1543       O  0.70241186  0.26329892  0.35513532    -0.71100
O1544       O  0.79304486  0.26421117  0.35517656    -0.62300
O1545       O  0.74757171  0.26746868  0.32055159    -0.74800
O1546       O  0.74777085  0.25995010  0.38968269    -0.73600
Cu1547     Cu  0.74831588  0.21213125  0.35187611     1.04600
Cu1548     Cu  0.74766681  0.26550117  0.35523814     1.04300
C1549       C  0.74752027  0.23371058  0.39889807     0.92700
C1550       C  0.74906664  0.24362763  0.30819459     0.91800
C1551       C  0.80759421  0.23930655  0.35418166     0.84000
C1552       C  0.68830042  0.23827407  0.35307011     0.90300
O1553       O  0.00199050  0.03200484  0.47500042    -0.73500
O1554       O  0.00144785  0.02054676  0.54347895    -0.74500
O1555       O  0.54747456  0.03793233  0.50903927    -0.63100
O1556       O  0.95654093  0.02626494  0.50911513    -0.71500
O1557       O  0.95646392  0.47657735  0.50468332    -0.71100
O1558       O  0.54648500  0.48814179  0.50846553    -0.62300
O1559       O  0.00163578  0.47085438  0.53912547    -0.74800
O1560       O  0.00209696  0.48227893  0.47044559    -0.73600
Cu1561     Cu  0.00174950  0.02795790  0.50942420     1.04600
Cu1562     Cu  0.00190391  0.47481424  0.50464105     1.04300
C1563       C  0.00211744  0.50891404  0.46190921     0.92700
C1564       C  0.00134756  0.99397818  0.55209253     0.91800
C1565       C  0.56140945  0.51279126  0.50870091     0.84000
C1566       C  0.94216840  0.50149542  0.50694111     0.90300
O1567       O  0.99993250  0.22351336  0.47277768    -0.73500
O1568       O  0.00067603  0.21545598  0.54178680    -0.74500
O1569       O  0.95493643  0.21923191  0.50751848    -0.63100
O1570       O  0.54558546  0.21858779  0.50802306    -0.71500
O1571       O  0.54545736  0.26851461  0.51088336    -0.71100
O1572       O  0.95481229  0.26910202  0.51078907    -0.62300
O1573       O  0.00041635  0.26538530  0.54494422    -0.74800
O1574       O  0.99979635  0.27342164  0.47615620    -0.73600
Cu1575     Cu  0.00031739  0.21774539  0.50716280     1.04600
Cu1576     Cu  0.00010926  0.27110238  0.51069426     1.04300
C1577       C  0.99970446  0.24976689  0.46360025     0.92700
C1578       C  0.00066299  0.23922176  0.55423687     0.91800
C1579       C  0.94048887  0.24413204  0.50921399     0.84000
C1580       C  0.55987303  0.24358444  0.50952218     0.90300
O1581       O  0.70555027  0.48209140  0.51021061    -0.73500
O1582       O  0.79641926  0.47896530  0.51080669    -0.74500
O1583       O  0.75075048  0.48670880  0.54469883    -0.63100
O1584       O  0.75131781  0.47382415  0.47645356    -0.71500
O1585       O  0.75324634  0.02328917  0.47117903    -0.71100
O1586       O  0.75179459  0.03624899  0.53986685    -0.62300
O1587       O  0.79766278  0.02852588  0.50614749    -0.74800
O1588       O  0.70726910  0.03145864  0.50493061    -0.73600
Cu1589     Cu  0.75092858  0.47868580  0.51074489     1.04600
Cu1590     Cu  0.75253818  0.03160355  0.50532775     1.04300
C1591       C  0.69209286  0.50742970  0.50757459     0.92700
C1592       C  0.81146564  0.50341617  0.50843044     0.91800
C1593       C  0.75105108  0.01323711  0.55312382     0.84000
C1594       C  0.75262279  0.49655738  0.46300461     0.90300
O1595       O  0.74975784  0.27369906  0.47650515    -0.73500
O1596       O  0.75010760  0.26538531  0.54519846    -0.74500
O1597       O  0.79535480  0.26938594  0.51078305    -0.63100
O1598       O  0.70468436  0.26929366  0.51102385    -0.71500
O1599       O  0.70483652  0.21942864  0.50762215    -0.71100
O1600       O  0.79530946  0.21952452  0.50742515    -0.62300
O1601       O  0.75011841  0.21545660  0.54206626    -0.74800
O1602       O  0.74977506  0.22380730  0.47298327    -0.73600
Cu1603     Cu  0.74999110  0.27116149  0.51099370     1.04600
Cu1604     Cu  0.75003187  0.21780782  0.50739241     1.04300
C1605       C  0.74955491  0.25012203  0.46388236     0.92700
C1606       C  0.75007327  0.23924041  0.55451046     0.91800
C1607       C  0.80971342  0.24442527  0.50912000     0.84000
C1608       C  0.69040452  0.24429946  0.50939407     0.90300
O1609       O  0.52887787  0.45543676  0.00798299    -0.73500
O1610       O  0.52869246  0.04725168  0.00910389    -0.74500
O1611       O  0.53093356  0.00061750  0.04253877    -0.63100
O1612       O  0.52969815  0.00210738  0.97455431    -0.71500
O1613       O  0.96630262  0.99975847  0.97382977    -0.71100
O1614       O  0.97560274  0.00117188  0.04307686    -0.62300
O1615       O  0.97021560  0.04549218  0.00803482    -0.74800
O1616       O  0.97041809  0.45549097  0.00894187    -0.73600
Cu1617     Cu  0.53127634  0.00135064  0.00852291     1.04600
Cu1618     Cu  0.96886125  0.00049515  0.00860963     1.04300
C1619       C  0.50342171  0.44160218  0.00818478     0.92700
C1620       C  0.50318400  0.06100228  0.00944796     0.91800
C1621       C  0.50670262  0.00062855  0.05426145     0.84000
C1622       C  0.50507117  0.00210386  0.96331903     0.90300
O1623       O  0.96715428  0.24991816  0.97341993    -0.73500
O1624       O  0.96323531  0.25108171  0.04191197    -0.74500
O1625       O  0.96592304  0.29609368  0.00724907    -0.63100
O1626       O  0.96583767  0.20489389  0.00798544    -0.71500
O1627       O  0.52025347  0.20649806  0.00936912    -0.71100
O1628       O  0.52053354  0.29598140  0.00840971    -0.62300
O1629       O  0.52012298  0.25187191  0.04401190    -0.74800
O1630       O  0.51806716  0.25058966  0.97391858    -0.73600
Cu1631     Cu  0.96380094  0.25049352  0.00759928     1.04600
Cu1632     Cu  0.52150422  0.25122460  0.00890101     1.04300
C1633       C  0.49224366  0.25040021  0.96389441     0.92700
C1634       C  0.49480048  0.25221999  0.05473674     0.91800
C1635       C  0.49599691  0.31099387  0.00852458     0.84000
C1636       C  0.49567196  0.19158703  0.00987436     0.90300
O1637       O  0.70742115  0.00019220  0.04100315    -0.73500
O1638       O  0.71354630  0.99925144  0.97251046    -0.74500
O1639       O  0.71126655  0.45412381  0.00725987    -0.63100
O1640       O  0.71120240  0.04531478  0.00637338    -0.71500
O1641       O  0.76115851  0.04474351  0.00886127    -0.71100
O1642       O  0.76125732  0.45472184  0.00928085    -0.62300
O1643       O  0.76362143  0.99958797  0.97422000    -0.74800
O1644       O  0.75741322  0.99992003  0.04373333    -0.73600
Cu1645     Cu  0.70910532  0.99972162  0.00668029     1.04600
Cu1646     Cu  0.76258681  0.99973654  0.00911518     1.04300
C1647       C  0.73129942  0.00007378  0.05323462     0.92700
C1648       C  0.73914865  0.99942625  0.96247704     0.91800
C1649       C  0.73648575  0.44004711  0.00844283     0.84000
C1650       C  0.73641175  0.05940167  0.00750796     0.90300
O1651       O  0.71917531  0.24864586  0.04450956    -0.73500
O1652       O  0.71303462  0.25061401  0.97499409    -0.74500
O1653       O  0.71537548  0.20465955  0.00898029    -0.63100
O1654       O  0.71538786  0.29468540  0.01039353    -0.71500
O1655       O  0.76533320  0.29530319  0.00780152    -0.71100
O1656       O  0.76534687  0.20412837  0.00663229    -0.62300
O1657       O  0.76307765  0.25052295  0.97303192    -0.74800
O1658       O  0.76912967  0.24889889  0.04133449    -0.73600
Cu1659     Cu  0.71398007  0.24965473  0.00982236     1.04600
Cu1660     Cu  0.76743942  0.24971760  0.00711783     1.04300
C1661       C  0.74544630  0.24844683  0.05376321     0.92700
C1662       C  0.73737269  0.25084129  0.96312756     0.91800
C1663       C  0.74013117  0.19002826  0.00759024     0.84000
C1664       C  0.74012770  0.30936985  0.00920331     0.90300
O1665       O  0.98538133  0.99631842  0.88688411    -0.73500
O1666       O  0.98347031  0.99851880  0.81791003    -0.74500
O1667       O  0.98404210  0.45165919  0.85169301    -0.63100
O1668       O  0.98531966  0.04247099  0.85315209    -0.71500
O1669       O  0.52139957  0.04549475  0.85455557    -0.71100
O1670       O  0.52055146  0.45572104  0.85568604    -0.62300
O1671       O  0.52517191  0.99951365  0.82049412    -0.74800
O1672       O  0.51492110  0.00132543  0.88962571    -0.73600
Cu1673     Cu  0.98281102  0.99720838  0.85241358     1.04600
Cu1674     Cu  0.52220662  0.00052084  0.85524728     1.04300
C1675       C  0.01081526  0.99647465  0.89725133     0.92700
C1676       C  0.00807336  0.99769335  0.80646656     0.91800
C1677       C  0.00902250  0.43711946  0.85155729     0.84000
C1678       C  0.01057267  0.05644733  0.85247819     0.90300
O1679       O  0.98942869  0.24731926  0.88935779    -0.73500
O1680       O  0.98371750  0.24534025  0.82045868    -0.74500
O1681       O  0.98707744  0.20131557  0.85559698    -0.63100
O1682       O  0.98579692  0.29168158  0.85426830    -0.71500
O1683       O  0.52703409  0.29674600  0.85314979    -0.71100
O1684       O  0.52763863  0.20527824  0.85150395    -0.62300
O1685       O  0.52426836  0.25258894  0.81818699    -0.74800
O1686       O  0.53238299  0.24999669  0.88643747    -0.73600
Cu1687     Cu  0.98479443  0.24637757  0.85502295     1.04600
Cu1688     Cu  0.52958914  0.25111646  0.85220122     1.04300
C1689       C  0.01521271  0.24732121  0.89928129     0.92700
C1690       C  0.00792652  0.24676875  0.80856463     0.91800
C1691       C  0.01209982  0.18709737  0.85416216     0.84000
C1692       C  0.01057434  0.30643540  0.85351871     0.90300
O1693       O  0.73769045  0.00160880  0.88867252    -0.73500
O1694       O  0.73339520  0.00139860  0.81972785    -0.74500
O1695       O  0.73594112  0.45653606  0.85425011    -0.63100
O1696       O  0.73512600  0.04699579  0.85419736    -0.71500
O1697       O  0.78517565  0.04749841  0.85329179    -0.71100
O1698       O  0.78591111  0.45678360  0.85188230    -0.62300
O1699       O  0.78343527  0.00347679  0.81795699    -0.74800
O1700       O  0.78774899  0.00122889  0.88723725    -0.73600
Cu1701     Cu  0.73381137  0.00165274  0.85426969     1.04600
Cu1702     Cu  0.78732198  0.00224883  0.85251454     1.04300
C1703       C  0.76327639  0.00116721  0.89887722     0.92700
C1704       C  0.75772980  0.00258545  0.80796171     0.91800
C1705       C  0.76097167  0.44229019  0.85301816     0.84000
C1706       C  0.76000438  0.06162114  0.85383810     0.90300
O1707       O  0.73485576  0.25175040  0.88880897    -0.73500
O1708       O  0.73350890  0.25318344  0.81995262    -0.74500
O1709       O  0.73411023  0.20682127  0.85401096    -0.63100
O1710       O  0.73486220  0.29757275  0.85473654    -0.71500
O1711       O  0.78488897  0.29699411  0.85316426    -0.71100
O1712       O  0.78417934  0.20657807  0.85407265    -0.62300
O1713       O  0.78360718  0.25096657  0.81905564    -0.74800
O1714       O  0.78497923  0.25224317  0.88823863    -0.73600
Cu1715     Cu  0.73259442  0.25231330  0.85439757     1.04600
Cu1716     Cu  0.78617134  0.25169186  0.85362312     1.04300
C1717       C  0.76011508  0.25196929  0.89940382     0.92700
C1718       C  0.75821060  0.25225088  0.80865052     0.91800
C1719       C  0.75910978  0.19232471  0.85406871     0.84000
C1720       C  0.76004220  0.31164966  0.85385595     0.90300
O1721       O  0.54670537  0.46929208  0.66299608    -0.73500
O1722       O  0.95629064  0.48071397  0.66233416    -0.74500
O1723       O  0.99997841  0.48447215  0.62650635    -0.63100
O1724       O  0.00327400  0.47886156  0.69562598    -0.71500
O1725       O  0.00115586  0.02856564  0.69782434    -0.71100
O1726       O  0.00014291  0.03426419  0.62914567    -0.62300
O1727       O  0.95533390  0.03047991  0.66387673    -0.74800
O1728       O  0.54588507  0.01947821  0.66228309    -0.73600
Cu1729     Cu  0.00144712  0.47981544  0.66101495     1.04600
Cu1730     Cu  0.00068171  0.03302935  0.66354169     1.04300
C1731       C  0.56067687  0.99470995  0.66256903     0.92700
C1732       C  0.94146999  0.00515691  0.66341732     0.91800
C1733       C  0.99990230  0.01032194  0.61695125     0.84000
C1734       C  0.00275626  0.00277161  0.70757343     0.90300
O1735       O  0.95617919  0.28085115  0.66535004    -0.73500
O1736       O  0.54669123  0.28224629  0.66554753    -0.74500
O1737       O  0.00095483  0.28233946  0.63063002    -0.63100
O1738       O  0.00216959  0.27802335  0.69958363    -0.71500
O1739       O  0.00015946  0.22799866  0.69786567    -0.71100
O1740       O  0.00117817  0.23228604  0.62868124    -0.62300
O1741       O  0.54620519  0.23220204  0.66503469    -0.74800
O1742       O  0.95556094  0.23089219  0.66287980    -0.73600
Cu1743     Cu  0.00144271  0.28192734  0.66515400     1.04600
Cu1744     Cu  0.00074412  0.22842228  0.66320507     1.04300
C1745       C  0.94152238  0.25607238  0.66395662     0.92700
C1746       C  0.56084603  0.25708457  0.66559012     0.91800
C1747       C  0.00101152  0.25807183  0.61877720     0.84000
C1748       C  0.00142876  0.25235437  0.70962064     0.90300
O1749       O  0.75183414  0.02665287  0.69729638    -0.73500
O1750       O  0.75008898  0.02262814  0.62788656    -0.74500
O1751       O  0.70528747  0.02352185  0.66317267    -0.63100
O1752       O  0.79590409  0.02596176  0.66212412    -0.71500
O1753       O  0.79722230  0.47617611  0.66524359    -0.71100
O1754       O  0.70657018  0.47345907  0.66366636    -0.62300
O1755       O  0.75286434  0.47272776  0.63007742    -0.74800
O1756       O  0.75072123  0.47657252  0.69883863    -0.73600
Cu1757     Cu  0.75067692  0.02647630  0.66255837     1.04600
Cu1758     Cu  0.75189403  0.47302916  0.66450488     1.04300
C1759       C  0.75154078  0.00214418  0.70894081     0.92700
C1760       C  0.75148978  0.99677998  0.61811605     0.91800
C1761       C  0.69151579  0.99813452  0.66337069     0.84000
C1762       C  0.81091191  0.00142022  0.66381170     0.90300
O1763       O  0.75176746  0.28039106  0.69947184    -0.73500
O1764       O  0.75070850  0.28320146  0.63055504    -0.74500
O1765       O  0.70602017  0.28155359  0.66552529    -0.63100
O1766       O  0.79660359  0.28197569  0.66454195    -0.71500
O1767       O  0.79673402  0.23198016  0.66248712    -0.71100
O1768       O  0.70619712  0.23150229  0.66504588    -0.62300
O1769       O  0.75002086  0.23312107  0.62912515    -0.74800
O1770       O  0.75367845  0.23031287  0.69828233    -0.73600
Cu1771     Cu  0.75126037  0.28350797  0.66505603     1.04600
Cu1772     Cu  0.75161741  0.22996568  0.66369186     1.04300
C1773       C  0.75325956  0.25493304  0.70974117     0.92700
C1774       C  0.75018311  0.25873086  0.61895714     0.91800
C1775       C  0.69172186  0.25648931  0.66557817     0.84000
C1776       C  0.81102031  0.25701758  0.66330421     0.90300
C1777       C  0.86034251  0.22954891  0.66238077    -0.13900
C1778       C  0.84440612  0.25697244  0.66300136     0.08200
C1779       C  0.86068243  0.28419724  0.66364762    -0.13900
C1780       C  0.89224457  0.28395433  0.66389885    -0.13900
C1781       C  0.90814716  0.25648357  0.66350902     0.08200
C1782       C  0.89184914  0.22930666  0.66262845    -0.13900
H1783       H  0.84847754  0.20818206  0.66184634     0.12200
H1784       H  0.84905073  0.30570078  0.66407229     0.12200
H1785       H  0.90416838  0.30528831  0.66446402     0.12200
H1786       H  0.90342467  0.20777219  0.66223931     0.12200
C1787       C  0.61063291  0.28405526  0.66655086    -0.13900
C1788       C  0.59433584  0.25682404  0.66613749     0.08200
C1789       C  0.61037636  0.22941896  0.66598353    -0.13900
C1790       C  0.64197846  0.22926322  0.66597782    -0.13900
C1791       C  0.65825011  0.25651403  0.66612392     0.08200
C1792       C  0.64219971  0.28389993  0.66654533    -0.13900
H1793       H  0.59900424  0.30556529  0.66673215     0.12200
H1794       H  0.59851764  0.20804145  0.66571869     0.12200
H1795       H  0.65364984  0.20777805  0.66571051     0.12200
H1796       H  0.65402235  0.30530169  0.66672535     0.12200
C1797       C  0.89118780  0.03091439  0.66122557    -0.13900
C1798       C  0.90808824  0.00432683  0.66402403     0.08200
C1799       C  0.89280393  0.47704858  0.66720613    -0.13900
C1800       C  0.86126546  0.47607881  0.66731124    -0.13900
C1801       C  0.84432154  0.00242422  0.66412819     0.08200
C1802       C  0.85964571  0.02996954  0.66124187    -0.13900
H1803       H  0.90232756  0.05243884  0.65875601     0.12200
H1804       H  0.90522186  0.45621272  0.66959745     0.12200
H1805       H  0.85017291  0.45452764  0.66976652     0.12200
H1806       H  0.84727477  0.05082707  0.65883462     0.12200
C1807       C  0.60957191  0.52300918  0.66444991    -0.13900
C1808       C  0.59415450  0.99548436  0.66254510     0.08200
C1809       C  0.61105026  0.96871589  0.66085958    -0.13900
C1810       C  0.64263674  0.96957854  0.66114623    -0.13900
C1811       C  0.65804222  0.99722748  0.66313213     0.08200
C1812       C  0.64112968  0.52389501  0.66474262    -0.13900
H1813       H  0.59723530  0.54403776  0.66590093     0.12200
H1814       H  0.59987527  0.94706715  0.65929737     0.12200
H1815       H  0.65498769  0.94855328  0.65975363     0.12200
H1816       H  0.65225584  0.54556277  0.66636582     0.12200
C1817       C  0.77515838  0.23315769  0.77039043    -0.13900
C1818       C  0.75723329  0.25293559  0.78338285     0.08200
C1819       C  0.73802393  0.27331134  0.77207878    -0.13900
C1820       C  0.73709909  0.27424742  0.74805878    -0.13900
C1821       C  0.75454267  0.25406728  0.73503392     0.08200
C1822       C  0.77341629  0.23334735  0.74635007    -0.13900
H1823       H  0.79002513  0.21721134  0.77885909     0.12200
H1824       H  0.72411146  0.28881302  0.78185208     0.12200
H1825       H  0.72237416  0.29037090  0.73963938     0.12200
H1826       H  0.78718498  0.21772410  0.73657761     0.12200
C1827       C  0.73352653  0.39294406  0.85466854    -0.13900
C1828       C  0.76090186  0.40886700  0.85303209     0.08200
C1829       C  0.78804597  0.39253498  0.85159433    -0.13900
C1830       C  0.78780153  0.36096055  0.85186719    -0.13900
C1831       C  0.76040332  0.34506652  0.85357305     0.08200
C1832       C  0.73328183  0.36142167  0.85493106    -0.13900
H1833       H  0.71220780  0.40483317  0.85580843     0.12200
H1834       H  0.80950546  0.40413556  0.85029940     0.12200
H1835       H  0.80908915  0.34901441  0.85073980     0.12200
H1836       H  0.71179459  0.34987483  0.85624338     0.12200
C1837       C  0.78686689  0.11138245  0.85316798    -0.13900
C1838       C  0.75968854  0.09505601  0.85402091     0.08200
C1839       C  0.73225559  0.11100155  0.85498556    -0.13900
C1840       C  0.73201540  0.14257906  0.85502816    -0.13900
C1841       C  0.75920399  0.15888667  0.85411657     0.08200
C1842       C  0.78662780  0.14292093  0.85322568    -0.13900
H1843       H  0.80838586  0.09980209  0.85240977     0.12200
H1844       H  0.71092153  0.09908957  0.85568870     0.12200
H1845       H  0.71052213  0.15420421  0.85577491     0.12200
H1846       H  0.80798785  0.15478855  0.85250778     0.12200
C1847       C  0.77514014  0.02154209  0.76967239    -0.13900
C1848       C  0.75602154  0.00282066  0.78263779     0.08200
C1849       C  0.73459950  0.48485976  0.77123390    -0.13900
C1850       C  0.73320731  0.48461054  0.74719751    -0.13900
C1851       C  0.75248974  0.00311964  0.73424655     0.08200
C1852       C  0.77300873  0.02208585  0.74563546    -0.13900
H1853       H  0.79138015  0.03603792  0.77816426     0.12200
H1854       H  0.71934360  0.47058721  0.78093211     0.12200
H1855       H  0.71689190  0.47019101  0.73870802     0.12200
H1856       H  0.78788708  0.03671468  0.73590476     0.12200
C1857       C  0.98857193  0.22695244  0.77112042    -0.13900
C1858       C  0.00609903  0.24793236  0.78331753     0.08200
C1859       C  0.51463261  0.27518788  0.77174455    -0.13900
C1860       C  0.51477584  0.27623623  0.74774364    -0.13900
C1861       C  0.00262157  0.25090459  0.73497217     0.08200
C1862       C  0.98728878  0.22808785  0.74705174    -0.13900
H1863       H  0.97635598  0.20941996  0.78019426     0.12200
H1864       H  0.52831669  0.29113974  0.78128332     0.12200
H1865       H  0.52858579  0.29297098  0.73913122     0.12200
H1866       H  0.97399589  0.21144834  0.73789498     0.12200
C1867       C  0.52516849  0.39271852  0.85387911    -0.13900
C1868       C  0.00917398  0.40367731  0.85186537     0.08200
C1869       C  0.98204146  0.38724612  0.85238541    -0.13900
C1870       C  0.98246254  0.35566555  0.85298537    -0.13900
C1871       C  0.01002184  0.33986332  0.85306369     0.08200
C1872       C  0.52669562  0.36121643  0.85414435    -0.13900
H1873       H  0.54609413  0.40536747  0.85385248     0.12200
H1874       H  0.96047263  0.39877339  0.85237442     0.12200
H1875       H  0.96117799  0.34363890  0.85336233     0.12200
H1876       H  0.54865270  0.35044481  0.85433002     0.12200
C1877       C  0.52637420  0.10886399  0.85367152    -0.13900
C1878       C  0.01113770  0.08986078  0.85309683     0.08200
C1879       C  0.98408487  0.10630362  0.85455997    -0.13900
C1880       C  0.98449972  0.13781575  0.85506109    -0.13900
C1881       C  0.01197934  0.15366283  0.85408502     0.08200
C1882       C  0.52787634  0.14041351  0.85360250    -0.13900
H1883       H  0.54726043  0.09617746  0.85437368     0.12200
H1884       H  0.96250674  0.09483497  0.85526881     0.12200
H1885       H  0.96320358  0.14976109  0.85609880     0.12200
H1886       H  0.54978059  0.15124381  0.85432267     0.12200
C1887       C  0.52061659  0.47825116  0.77119507    -0.13900
C1888       C  0.00690239  0.99885256  0.78121049     0.08200
C1889       C  0.98888761  0.02056522  0.77023478    -0.13900
C1890       C  0.98783826  0.02202409  0.74623222    -0.13900
C1891       C  0.00395604  0.00110649  0.73287063     0.08200
C1892       C  0.52015863  0.47676210  0.74711711    -0.13900
H1893       H  0.53317950  0.46149879  0.78084148     0.12200
H1894       H  0.97603833  0.03669846  0.78025752     0.12200
H1895       H  0.97407924  0.03921089  0.73809174     0.12200
H1896       H  0.53273536  0.45908555  0.73851299     0.12200
C1897       C  0.73580896  0.25139902  0.93776466    -0.17000
C1898       C  0.76097067  0.25180453  0.92474590    -0.32200
H1899       H  0.71367794  0.25135654  0.92969328     0.12000
H1900       H  0.78306276  0.25187503  0.93289087     0.12600
C1901       C  0.76512522  0.39123566  0.00913743    -0.13900
C1902       C  0.73730670  0.40661473  0.00884077     0.08200
C1903       C  0.71048364  0.38972875  0.00890783    -0.13900
C1904       C  0.71146032  0.35818105  0.00916818    -0.13900
C1905       C  0.73928328  0.34280341  0.00930196     0.08200
C1906       C  0.76610189  0.35969074  0.00932175    -0.13900
H1907       H  0.78623619  0.40357256  0.00912646     0.12200
H1908       H  0.68871374  0.40087256  0.00873598     0.12200
H1909       H  0.69035233  0.34583849  0.00913365     0.12200
H1910       H  0.78787227  0.34854739  0.00945777     0.12200
C1911       C  0.76506099  0.10816865  0.00835765    -0.13900
C1912       C  0.73726218  0.09282596  0.00727476     0.08200
C1913       C  0.71050017  0.10973865  0.00602160    -0.13900
C1914       C  0.71150275  0.14128189  0.00601737    -0.13900
C1915       C  0.73929682  0.15661556  0.00720513     0.08200
C1916       C  0.76606692  0.13970713  0.00828112    -0.13900
H1917       H  0.78612587  0.09580919  0.00932071     0.12200
H1918       H  0.68875211  0.09862077  0.00512108     0.12200
H1919       H  0.69044299  0.15365728  0.00509646     0.12200
H1920       H  0.78780811  0.15083008  0.00924381     0.12200
C1921       C  0.76468796  0.00057867  0.92432349    -0.17000
C1922       C  0.73941213  0.99959589  0.93709257    -0.32200
H1923       H  0.78667117  0.00098255  0.93261934     0.12000
H1924       H  0.71764665  0.49905032  0.92858996     0.12600
C1925       C  0.01713021  0.24791813  0.92466099    -0.17000
C1926       C  0.48924723  0.25003635  0.93864016    -0.32200
H1927       H  0.53569287  0.24972497  0.93114091     0.12000
H1928       H  0.97006648  0.24900439  0.92945985     0.12600
C1929       C  0.96634802  0.39208216  0.00725048    -0.13900
C1930       C  0.50175530  0.40817262  0.00795400     0.08200
C1931       C  0.52800488  0.39048706  0.00736726    -0.13900
C1932       C  0.52600720  0.35897455  0.00745151    -0.13900
C1933       C  0.49770849  0.34441601  0.00813046     0.08200
C1934       C  0.96529033  0.36054048  0.00731316    -0.13900
H1935       H  0.94527293  0.40448622  0.00703637     0.12200
H1936       H  0.55008992  0.40097058  0.00692140     0.12200
H1937       H  0.54673632  0.34601086  0.00706138     0.12200
H1938       H  0.94349148  0.34945993  0.00720046     0.12200
C1939       C  0.52763632  0.11210991  0.00876964    -0.13900
C1940       C  0.50143482  0.09441714  0.00979046     0.08200
C1941       C  0.96618641  0.10890989  0.00769186    -0.13900
C1942       C  0.96516322  0.14043862  0.00843377    -0.13900
C1943       C  0.49733450  0.15816177  0.00998175     0.08200
C1944       C  0.52561121  0.14360394  0.00885865    -0.13900
H1945       H  0.54970562  0.10164550  0.00781037     0.12200
H1946       H  0.94510987  0.09652524  0.00809733     0.12200
H1947       H  0.94339630  0.15152613  0.00934335     0.12200
H1948       H  0.54631419  0.15655698  0.00796906     0.12200
C1949       C  0.50754830  0.00238704  0.93801504    -0.17000
C1950       C  0.01224970  0.99688642  0.92257698    -0.32200
H1951       H  0.53020947  0.50306050  0.93093991     0.12000
H1952       H  0.03457084  0.99643081  0.93034271     0.12600
C1953       C  0.74991456  0.26072151  0.59362502    -0.17000
C1954       C  0.74998819  0.23633184  0.57984472    -0.32200
H1955       H  0.74989892  0.28318954  0.58610284     0.12000
H1956       H  0.75005918  0.21380544  0.58725673     0.12600
C1957       C  0.75080487  0.01757037  0.57836302    -0.17000
C1958       C  0.75161141  0.99388614  0.59283219    -0.32200
H1959       H  0.75015112  0.04043790  0.58510487     0.12000
H1960       H  0.75263687  0.47121883  0.58588310     0.12600
C1961       C  0.85925435  0.21707311  0.50714018    -0.13900
C1962       C  0.84316620  0.24431659  0.50918448     0.08200
C1963       C  0.85936842  0.27144670  0.51132867    -0.13900
C1964       C  0.89093065  0.27135133  0.51138435    -0.13900
C1965       C  0.90702932  0.24412774  0.50929662     0.08200
C1966       C  0.89083157  0.21697770  0.50719664    -0.13900
H1967       H  0.84745581  0.19577024  0.50547013     0.12200
H1968       H  0.84767141  0.29281284  0.51296266     0.12200
H1969       H  0.90271397  0.29266223  0.51304667     0.12200
H1970       H  0.90254121  0.19561902  0.50555388     0.12200
C1971       C  0.60921330  0.27097730  0.51193127    -0.13900
C1972       C  0.59325916  0.24371199  0.50965959     0.08200
C1973       C  0.60951742  0.21662243  0.50745706    -0.13900
C1974       C  0.64105797  0.21681621  0.50739818    -0.13900
C1975       C  0.65701256  0.24410311  0.50956176     0.08200
C1976       C  0.64074988  0.27116994  0.51188035    -0.13900
H1977       H  0.59734341  0.29222669  0.51372205     0.12200
H1978       H  0.59788638  0.19523901  0.50569976     0.12200
H1979       H  0.65292886  0.19556725  0.50560584     0.12200
H1980       H  0.65237668  0.29255501  0.51363347     0.12200
C1981       C  0.00092147  0.23618723  0.57954939    -0.17000
C1982       C  0.00084592  0.26043885  0.59346092    -0.32200
H1983       H  0.00115242  0.21359748  0.58684975     0.12000
H1984       H  0.50306297  0.28366464  0.58590751     0.12600
C1985       C  0.89218425  0.47469513  0.50645966    -0.13900
C1986       C  0.90872104  0.50177431  0.50721975     0.08200
C1987       C  0.89287332  0.02922275  0.50875048    -0.13900
C1988       C  0.86134785  0.02966592  0.50921207    -0.13900
C1989       C  0.84489501  0.50269379  0.50823850     0.08200
C1990       C  0.86059102  0.47514876  0.50703879    -0.13900
H1991       H  0.90364239  0.45313046  0.50549690     0.12200
H1992       H  0.90490034  0.05049014  0.50947496     0.12200
H1993       H  0.84994068  0.05125188  0.51028241     0.12200
H1994       H  0.84846323  0.45393607  0.50638118     0.12200
C1995       C  0.60989129  0.48362522  0.50839788    -0.13900
C1996       C  0.59485481  0.51161779  0.50842072     0.08200
C1997       C  0.61198316  0.03798466  0.50803571    -0.13900
C1998       C  0.64354412  0.03662879  0.50763787    -0.13900
C1999       C  0.65866398  0.50885564  0.50769403     0.08200
C2000       C  0.64141285  0.48226129  0.50808619    -0.13900
H2001       H  0.59730330  0.46266567  0.50864946     0.12200
H2002       H  0.60109918  0.05988075  0.50814488     0.12200
H2003       H  0.65618506  0.05755689  0.50753225     0.12200
H2004       H  0.65225791  0.46034282  0.50810279     0.12200
C2005       C  0.00092058  0.98983847  0.57729931    -0.17000
C2006       C  0.99982154  0.01351653  0.59171459    -0.32200
H2007       H  0.00156148  0.96698344  0.58408627     0.12000
H2008       H  0.49819256  0.46702582  0.58476529     0.12600
C2009       C  0.74776260  0.23015978  0.42417314    -0.17000
C2010       C  0.74901014  0.25381506  0.43861517    -0.32200
H2011       H  0.74716527  0.20734767  0.43104743     0.12000
H2012       H  0.74958171  0.27663949  0.43176047     0.12600
C2013       C  0.75539042  0.51403589  0.42272499    -0.17000
C2014       C  0.75335812  0.49127753  0.43790570    -0.32200
H2015       H  0.75661879  0.53716903  0.42888300     0.12000
H2016       H  0.75212034  0.96808197  0.43178375     0.12600
C2017       C  0.99911219  0.22950119  0.42393096    -0.17000
C2018       C  0.99929486  0.25327003  0.43831824    -0.32200
H2019       H  0.99929159  0.20670567  0.43085021     0.12000
H2020       H  0.49986085  0.27395879  0.43181778     0.12600
C2021       C  0.88875810  0.26649251  0.35557798    -0.13900
C2022       C  0.90477933  0.23913466  0.35438025     0.08200
C2023       C  0.88856307  0.21190211  0.35337990    -0.13900
C2024       C  0.85704352  0.21201326  0.35342510    -0.13900
C2025       C  0.84099660  0.23935525  0.35446116     0.08200
C2026       C  0.85718392  0.26660437  0.35561809    -0.13900
H2027       H  0.90060327  0.28785448  0.35639595     0.12200
H2028       H  0.90021379  0.19043378  0.35248961     0.12200
H2029       H  0.84525720  0.19062008  0.35256466     0.12200
H2030       H  0.84547302  0.28804212  0.35646586     0.12200
C2031       C  0.60699203  0.26456910  0.35678469    -0.13900
C2032       C  0.59101921  0.23752746  0.35332799     0.08200
C2033       C  0.60732168  0.21069793  0.34976434    -0.13900
C2034       C  0.63889956  0.21092434  0.34963661    -0.13900
C2035       C  0.65485773  0.23798764  0.35306192     0.08200
C2036       C  0.63854010  0.26479816  0.35664295    -0.13900
H2037       H  0.59512463  0.28561898  0.35963799     0.12200
H2038       H  0.59569248  0.18948918  0.34704736     0.12200
H2039       H  0.65080036  0.18988314  0.34683175     0.12200
H2040       H  0.65013854  0.28601331  0.35941009     0.12200
C2041       C  0.00108818  0.49013415  0.42193456    -0.17000
C2042       C  0.00208541  0.51342535  0.43671441    -0.32200
H2043       H  0.00028347  0.46716967  0.42850082     0.12000
H2044       H  0.50213440  0.04001707  0.43051409     0.12600
C2045       C  0.86159104  0.47418604  0.34864066    -0.13900
C2046       C  0.84594329  0.50182836  0.34937586     0.08200
C2047       C  0.86274610  0.02909986  0.34950315    -0.13900
C2048       C  0.89431831  0.02843862  0.34945078    -0.13900
C2049       C  0.90981329  0.50049079  0.34925850     0.08200
C2050       C  0.89316498  0.47352477  0.34852066    -0.13900
H2051       H  0.84943434  0.45297693  0.34827698     0.12200
H2052       H  0.85138809  0.05074515  0.35003197     0.12200
H2053       H  0.90646189  0.04965255  0.34987146     0.12200
H2054       H  0.90451666  0.45187212  0.34812009     0.12200
C2055       C  0.61185743  0.02790289  0.35259585    -0.13900
C2056       C  0.59614950  0.50040098  0.35582148     0.08200
C2057       C  0.61279079  0.47375601  0.35910506    -0.13900
C2058       C  0.64434270  0.47438842  0.35883306    -0.13900
C2059       C  0.65989164  0.50166788  0.35519790     0.08200
C2060       C  0.64338150  0.02852487  0.35223545    -0.13900
H2061       H  0.59966309  0.04882971  0.35000990     0.12200
H2062       H  0.60144088  0.45240298  0.36187233     0.12200
H2063       H  0.65654425  0.45346091  0.36138813     0.12200
H2064       H  0.65467272  0.04989925  0.34942940     0.12200
C2065       C  0.72632329  0.24679839  0.09381881    -0.17000
C2066       C  0.74943895  0.24776080  0.07894812    -0.32200
H2067       H  0.70325195  0.24641077  0.08745108     0.12000
H2068       H  0.77245499  0.24815136  0.08543697     0.12600
C2069       C  0.73207942  0.26936099  0.24749801    -0.13900
C2070       C  0.74880250  0.24859750  0.23442870     0.08200
C2071       C  0.76657984  0.22696807  0.24570189    -0.13900
C2072       C  0.76669084  0.22538409  0.26976164    -0.13900
C2073       C  0.74982805  0.24605395  0.28287085     0.08200
C2074       C  0.73301917  0.26845477  0.27155016    -0.13900
H2075       H  0.71817878  0.28618486  0.23905873     0.12200
H2076       H  0.77941227  0.21060534  0.23588939     0.12200
H2077       H  0.77992803  0.20799900  0.27815035     0.12200
H2078       H  0.71978446  0.28456005  0.28129726     0.12200
C2079       C  0.75193448  0.99959260  0.09265455    -0.17000
C2080       C  0.72803744  0.99992431  0.07850981    -0.32200
H2081       H  0.77462293  0.49984148  0.08553832     0.12000
H2082       H  0.70533789  0.99983935  0.08561702     0.12600
C2083       C  0.71604975  0.38897891  0.16404412    -0.13900
C2084       C  0.74394424  0.40403249  0.16225489     0.08200
C2085       C  0.77051484  0.38686092  0.16083318    -0.13900
C2086       C  0.76920194  0.35532618  0.16114236    -0.13900
C2087       C  0.74129544  0.34028071  0.16296466     0.08200
C2088       C  0.71474469  0.35746741  0.16442865    -0.13900
H2089       H  0.69513733  0.40155245  0.16527871     0.12200
H2090       H  0.79232744  0.39776970  0.15945988     0.12200
H2091       H  0.79011308  0.34273682  0.15999373     0.12200
H2092       H  0.69292670  0.34658833  0.16587928     0.12200
C2093       C  0.76854597  0.13896821  0.16387931    -0.13900
C2094       C  0.74058830  0.15405145  0.16520669     0.08200
C2095       C  0.71406419  0.13684780  0.16677415    -0.06700
C2096       C  0.71546502  0.10528795  0.16673597    -0.13900
C2097       C  0.74342783  0.09022650  0.16523420     0.08200
C2098       C  0.76995326  0.10743895  0.16394850    -0.13900
H2099       H  0.78946400  0.15153566  0.16271678     0.12200
H2100       H  0.69221495  0.14774529  0.16785874     0.12200
H2101       H  0.69456465  0.09267855  0.16783084     0.12200
H2102       H  0.79180262  0.09656198  0.16275842     0.12200
C2103       C  0.72419629  0.01264919  0.24646204    -0.13900
C2104       C  0.74304814  0.49332506  0.23387331     0.08200
C2105       C  0.76319625  0.47421507  0.24560387    -0.13900
C2106       C  0.76442308  0.47436512  0.26965754    -0.13900
C2107       C  0.74629409  0.49442017  0.28219623     0.08200
C2108       C  0.72618855  0.01362289  0.27045145    -0.13900
H2109       H  0.70863168  0.02761903  0.23769269     0.12200
H2110       H  0.77808341  0.45931734  0.23612318     0.12200
H2111       H  0.78030592  0.45971789  0.27841173     0.12200
H2112       H  0.71189202  0.02915441  0.27986758     0.12200
C2113       C  0.51675566  0.25282732  0.09416081    -0.17000
C2114       C  0.49282279  0.25277394  0.08005349    -0.32200
H2115       H  0.53947028  0.25245426  0.08709930     0.12000
H2116       H  0.96206273  0.25182548  0.08631103     0.12600
C2117       C  0.97707671  0.23016274  0.24539483    -0.13900
C2118       C  0.99562547  0.25139859  0.23437672     0.08200
C2119       C  0.51762672  0.26964220  0.24890785    -0.13900
C2120       C  0.51663611  0.26741743  0.27290185    -0.13900
C2121       C  0.99592170  0.24647407  0.28272336     0.08200
C2122       C  0.97762230  0.22735847  0.26939584    -0.13900
H2123       H  0.96291447  0.21515332  0.23539459     0.12200
H2124       H  0.53376746  0.28481156  0.24099429     0.12200
H2125       H  0.53204801  0.28085233  0.28313039     0.12200
H2126       H  0.96357984  0.21044885  0.27757684     0.12200
C2127       C  0.50998533  0.00062702  0.07952776    -0.17000
C2128       C  0.48681999  0.00184086  0.09429463    -0.32200
H2129       H  0.02996160  0.50243959  0.08318833     0.12000
H2130       H  0.46378998  0.00245348  0.08783721     0.12600
C2131       C  0.52934041  0.39529278  0.16493412    -0.13900
C2132       C  0.99675211  0.41102646  0.16383914     0.08200
C2133       C  0.96998034  0.39417555  0.16550191    -0.13900
C2134       C  0.97093619  0.36258776  0.16573932    -0.13900
C2135       C  0.99869111  0.34717797  0.16442063     0.08200
C2136       C  0.53063627  0.36376968  0.16474752    -0.13900
H2137       H  0.55034076  0.40781490  0.16468179     0.12200
H2138       H  0.94827905  0.40537471  0.16650284     0.12200
H2139       H  0.94989262  0.35023788  0.16695074     0.12200
H2140       H  0.55251228  0.35284431  0.16433784     0.12200
C2141       C  0.53011952  0.11172614  0.16367464    -0.13900
C2142       C  0.99853810  0.09720955  0.16106960     0.08200
C2143       C  0.97178573  0.11411417  0.15989323    -0.13900
C2144       C  0.97273990  0.14561372  0.16035863    -0.13900
C2145       C  0.00046596  0.16096473  0.16212537     0.08200
C2146       C  0.53146097  0.14327350  0.16402326    -0.13900
H2147       H  0.55106690  0.09914747  0.16290832     0.12200
H2148       H  0.95006054  0.10301160  0.15862121     0.12200
H2149       H  0.95164991  0.15793548  0.15943167     0.12200
H2150       H  0.55331479  0.15421707  0.16341010     0.12200
C2151       C  0.98628648  0.02589515  0.26921939    -0.13900
C2152       C  0.00616606  0.50667772  0.28094205     0.08200
C2153       C  0.52385494  0.48214191  0.27089642    -0.13900
C2154       C  0.52473418  0.48301943  0.24682496    -0.13900
C2155       C  0.00500634  0.50748105  0.23251941     0.08200
C2156       C  0.98536632  0.02583945  0.24517834    -0.13900
H2157       H  0.97036278  0.03969568  0.27868621     0.12200
H2158       H  0.53527263  0.46395509  0.27983376     0.12200
H2159       H  0.53641478  0.46533290  0.23752424     0.12200
H2160       H  0.96883986  0.03979582  0.23645781     0.12200
O2161       O  0.96565859  0.50296819  0.13012989    -0.73500
O2162       O  0.97643421  0.00669381  0.19829029    -0.74500
O2163       O  0.97193750  0.55001396  0.16289481    -0.63100
O2164       O  0.97140420  0.95890603  0.16554637    -0.71500
O2165       O  0.52496784  0.95843868  0.16266694    -0.71100
O2166       O  0.52537363  0.54830461  0.16226361    -0.62300
O2167       O  0.53015483  0.00343364  0.19694655    -0.74800
O2168       O  0.51853745  0.50294766  0.12790946    -0.73600
Cu2169     Cu  0.96947791  0.50459369  0.16433563     1.04600
Cu2170     Cu  0.52648559  0.00327468  0.16223174     1.04300
C2171       C  0.49176174  0.50256062  0.11947946     0.92700
C2172       C  0.00272687  0.00622507  0.20726003     0.91800
C2173       C  0.50085809  0.56322663  0.16419380     0.84000
C2174       C  0.50038394  0.94386354  0.16527114     0.90300
O2175       O  0.97277999  0.75196745  0.19706133    -0.73500
O2176       O  0.97933350  0.75490244  0.12782747    -0.74500
O2177       O  0.97601715  0.70883462  0.16138182    -0.63100
O2178       O  0.97501691  0.79887568  0.16342698    -0.71500
O2179       O  0.53054182  0.79933891  0.16604430    -0.71100
O2180       O  0.53092892  0.70797947  0.16697028    -0.62300
O2181       O  0.53630526  0.75308289  0.13225584    -0.74800
O2182       O  0.52665538  0.75453131  0.20081386    -0.73600
Cu2183     Cu  0.97405852  0.75369767  0.16233340     1.04600
Cu2184     Cu  0.53288103  0.75374724  0.16666536     1.04300
C2185       C  0.99698384  0.75275129  0.20906228     0.92700
C2186       C  0.51290736  0.75321495  0.11947252     0.91800
C2187       C  0.00085829  0.69437478  0.16285154     0.84000
C2188       C  0.99969962  0.81372692  0.16431926     0.90300
O2189       O  0.72300507  0.49817448  0.12769036    -0.73500
O2190       O  0.71878646  0.49626715  0.19719325    -0.74500
O2191       O  0.71987897  0.54206522  0.16323357    -0.63100
O2192       O  0.72042238  0.95221614  0.16192873    -0.71500
O2193       O  0.77047298  0.95141040  0.16278333    -0.71100
O2194       O  0.76984887  0.54273054  0.16550709    -0.62300
O2195       O  0.76889208  0.49465255  0.19831436    -0.74800
O2196       O  0.77304213  0.49883948  0.12991528    -0.73600
Cu2197     Cu  0.71875541  0.49717004  0.16240238     1.04600
Cu2198     Cu  0.77228813  0.49696041  0.16417087     1.04300
C2199       C  0.74894996  0.49891461  0.11793890     0.92700
C2200       C  0.74346628  0.49472800  0.20860050     0.91800
C2201       C  0.74454429  0.55677716  0.16470879     0.84000
C2202       C  0.74515660  0.93744859  0.16227685     0.90300
O2203       O  0.70824857  0.74641074  0.13218940    -0.73500
O2204       O  0.71950953  0.74904461  0.20042897    -0.74500
O2205       O  0.71487212  0.79309855  0.16534050    -0.63100
O2206       O  0.71449326  0.70171466  0.16722015    -0.71500
O2207       O  0.76407245  0.70207317  0.16197381    -0.71100
O2208       O  0.76469286  0.79193977  0.16167664    -0.62300
O2209       O  0.76932877  0.74684474  0.19637752    -0.74800
O2210       O  0.75795916  0.74690484  0.12738848    -0.73600
Cu2211     Cu  0.71251812  0.74754091  0.16646227     1.04600
Cu2212     Cu  0.76571371  0.74693210  0.16167373     1.04300
C2213       C  0.73121554  0.74661988  0.11897217     0.92700
C2214       C  0.74589925  0.74824696  0.20921702     0.91800
C2215       C  0.74016128  0.80688568  0.16335134     0.84000
C2216       C  0.73952425  0.68750582  0.16481405     0.90300
O2217       O  0.54881744  0.97481967  0.35464410    -0.73500
O2218       O  0.95776044  0.97520663  0.34814663    -0.74500
O2219       O  0.00576533  0.97867114  0.31546887    -0.63100
O2220       O  0.00133895  0.97071404  0.38397508    -0.71500
O2221       O  0.00199074  0.52044917  0.38766335    -0.71100
O2222       O  0.00354371  0.52828689  0.31848539    -0.62300
O2223       O  0.95770480  0.52470178  0.35231881    -0.74800
O2224       O  0.54820191  0.52470511  0.35589050    -0.73600
Cu2225     Cu  0.00334053  0.97315515  0.34960437     1.04600
Cu2226     Cu  0.00279898  0.52627585  0.35317846     1.04300
C2227       C  0.56292658  0.99999104  0.35557759     0.92700
C2228       C  0.94343153  0.00023233  0.34978227     0.91800
C2229       C  0.00545068  0.00476463  0.30614711     0.84000
C2230       C  0.00138893  0.99422310  0.39665265     0.90300
O2231       O  0.99814922  0.76715408  0.32048648    -0.73500
O2232       O  0.99837209  0.75919548  0.38944202    -0.74500
O2233       O  0.54317593  0.76222430  0.35600418    -0.63100
O2234       O  0.95283718  0.76369820  0.35513585    -0.71500
O2235       O  0.95225533  0.71375433  0.35254833    -0.71100
O2236       O  0.54320851  0.71258095  0.35110473    -0.62300
O2237       O  0.99861555  0.70928987  0.38603694    -0.74800
O2238       O  0.99585991  0.71727684  0.31714893    -0.73600
Cu2239     Cu  0.99821155  0.76491602  0.35507837     1.04600
Cu2240     Cu  0.99740053  0.71157199  0.35148194     1.04300
C2241       C  0.99662920  0.74348630  0.30796137     0.92700
C2242       C  0.99869071  0.73293969  0.39860578     0.91800
C2243       C  0.55756887  0.73743327  0.35346873     0.84000
C2244       C  0.93818484  0.73887263  0.35401527     0.90300
O2245       O  0.75477262  0.98282322  0.38892906    -0.73500
O2246       O  0.75156660  0.97351467  0.31979555    -0.74500
O2247       O  0.79832848  0.97786139  0.35298702    -0.63100
O2248       O  0.70812661  0.97761296  0.35565342    -0.71500
O2249       O  0.70728872  0.52730062  0.35232542    -0.71100
O2250       O  0.79812608  0.52732592  0.34860818    -0.62300
O2251       O  0.74964015  0.52311057  0.31640890    -0.74800
O2252       O  0.75496453  0.53251598  0.38458983    -0.73600
Cu2253     Cu  0.75326193  0.97620081  0.35448918     1.04600
Cu2254     Cu  0.75258019  0.52928093  0.35034568     1.04300
C2255       C  0.75524390  0.00938518  0.39762177     0.92700
C2256       C  0.74953444  0.99724649  0.30733399     0.91800
C2257       C  0.81267308  0.00261346  0.35029769     0.84000
C2258       C  0.69343700  0.00238045  0.35444000     0.90300
O2259       O  0.74719629  0.71006291  0.38637552    -0.73500
O2260       O  0.74980886  0.71761888  0.31758734    -0.74500
O2261       O  0.79341653  0.71428164  0.35290156    -0.63100
O2262       O  0.70293768  0.71357143  0.35108864    -0.71500
O2263       O  0.70240543  0.76334435  0.35512574    -0.71100
O2264       O  0.79304585  0.76425226  0.35521024    -0.62300
O2265       O  0.74759994  0.76753236  0.32056489    -0.74800
O2266       O  0.74773537  0.75997779  0.38969680    -0.73600
Cu2267     Cu  0.74830865  0.71217836  0.35187286     1.04600
Cu2268     Cu  0.74766336  0.76554611  0.35525204     1.04300
C2269       C  0.74747193  0.73373257  0.39890288     0.92700
C2270       C  0.74910809  0.74369804  0.30820118     0.91800
C2271       C  0.80759046  0.73934478  0.35420777     0.84000
C2272       C  0.68829326  0.73832145  0.35304594     0.90300
O2273       O  0.00214359  0.53201856  0.47503209    -0.73500
O2274       O  0.00147590  0.52062634  0.54351228    -0.74500
O2275       O  0.54756731  0.53817749  0.50910496    -0.63100
O2276       O  0.95663334  0.52629858  0.50909011    -0.71500
O2277       O  0.95636296  0.97655041  0.50466743    -0.71100
O2278       O  0.54637420  0.98789766  0.50836563    -0.62300
O2279       O  0.00159441  0.97078101  0.53905323    -0.74800
O2280       O  0.00193700  0.98227089  0.47037786    -0.73600
Cu2281     Cu  0.00183835  0.52800264  0.50945681     1.04600
Cu2282     Cu  0.00180329  0.97477606  0.50457023     1.04300
C2283       C  0.00195102  0.00891635  0.46186095     0.92700
C2284       C  0.00137389  0.49406956  0.55214577     0.91800
C2285       C  0.56130698  0.01254174  0.50859776     0.84000
C2286       C  0.94207118  0.00146353  0.50697336     0.90300
O2287       O  0.99994744  0.72348851  0.47274147    -0.73500
O2288       O  0.00064969  0.71551850  0.54175509    -0.74500
O2289       O  0.95493042  0.71925048  0.50746977    -0.63100
O2290       O  0.54556187  0.71849691  0.50799165    -0.71500
O2291       O  0.54543963  0.76842298  0.51086069    -0.71100
O2292       O  0.95479698  0.76912325  0.51071434    -0.62300
O2293       O  0.00038748  0.76545034  0.54489167    -0.74800
O2294       O  0.99981314  0.77340000  0.47609375    -0.73600
Cu2295     Cu  0.00031029  0.71776306  0.50713053     1.04600
Cu2296     Cu  0.00010108  0.77112314  0.51063440     1.04300
C2297       C  0.99972778  0.74973353  0.46355041     0.92700
C2298       C  0.00063373  0.73929344  0.55419526     0.91800
C2299       C  0.94047734  0.74414863  0.50915194     0.84000
C2300       C  0.55985204  0.74349208  0.50949144     0.90300
O2301       O  0.70546167  0.98189990  0.51014256    -0.73500
O2302       O  0.79633153  0.97886461  0.51088543    -0.74500
O2303       O  0.75057135  0.98657566  0.54470965    -0.63100
O2304       O  0.75133037  0.97369854  0.47645082    -0.71500
O2305       O  0.75326337  0.52340769  0.47114774    -0.71100
O2306       O  0.75199608  0.53638082  0.53985626    -0.62300
O2307       O  0.79777205  0.52862274  0.50605250    -0.74800
O2308       O  0.70738418  0.53164462  0.50497551    -0.73600
Cu2309     Cu  0.75084270  0.97854575  0.51075023     1.04600
Cu2310     Cu  0.75265181  0.53173904  0.50530474     1.04300
C2311       C  0.69199077  0.00722804  0.50749428     0.92700
C2312       C  0.81136709  0.00332710  0.50854077     0.91800
C2313       C  0.75125469  0.51336696  0.55311452     0.84000
C2314       C  0.75265141  0.99644924  0.46301769     0.90300
O2315       O  0.74970879  0.77365563  0.47652957    -0.73500
O2316       O  0.75009382  0.76528249  0.54520817    -0.74500
O2317       O  0.79532599  0.76932418  0.51079154    -0.63100
O2318       O  0.70465665  0.76920518  0.51105306    -0.71500
O2319       O  0.70481965  0.71934244  0.50763208    -0.71100
O2320       O  0.79529898  0.71946528  0.50741396    -0.62300
O2321       O  0.75011862  0.71535483  0.54206748    -0.74800
O2322       O  0.74974038  0.72376668  0.47298444    -0.73600
Cu2323     Cu  0.74996128  0.77108568  0.51101330     1.04600
Cu2324     Cu  0.75001730  0.71773440  0.50739222     1.04300
C2325       C  0.74950408  0.75008938  0.46389598     0.92700
C2326       C  0.75006907  0.73913572  0.55451533     0.91800
C2327       C  0.80969462  0.74437091  0.50911446     0.84000
C2328       C  0.69038224  0.74420950  0.50941088     0.90300
O2329       O  0.52893833  0.95542600  0.00796900    -0.73500
O2330       O  0.52860282  0.54726292  0.00903293    -0.74500
O2331       O  0.53087685  0.50068958  0.04251368    -0.63100
O2332       O  0.52961341  0.50206309  0.97452965    -0.71500
O2333       O  0.96647511  0.49970917  0.97381215    -0.71100
O2334       O  0.97564934  0.50119467  0.04305044    -0.62300
O2335       O  0.97033945  0.54548102  0.00798391    -0.74800
O2336       O  0.97029093  0.95550274  0.00894583    -0.73600
Cu2337     Cu  0.53120175  0.50136325  0.00849578     1.04600
Cu2338     Cu  0.96898150  0.50048250  0.00858255     1.04300
C2339       C  0.50347775  0.94159942  0.00816928     0.92700
C2340       C  0.50309336  0.56101124  0.00938432     0.91800
C2341       C  0.50665981  0.50069986  0.05424632     0.84000
C2342       C  0.50498820  0.50206184  0.96329282     0.90300
O2343       O  0.96715702  0.74993099  0.97340748    -0.73500
O2344       O  0.96325908  0.75103411  0.04189641    -0.74500
O2345       O  0.96588354  0.79607886  0.00725574    -0.63100
O2346       O  0.96591049  0.70487292  0.00795306    -0.71500
O2347       O  0.52021146  0.70649792  0.00938874    -0.71100
O2348       O  0.52053090  0.79597874  0.00843068    -0.62300
O2349       O  0.52011926  0.75187286  0.04403281    -0.74800
O2350       O  0.51803448  0.75058757  0.97394106    -0.73600
Cu2351     Cu  0.96381721  0.75047310  0.00758621     1.04600
Cu2352     Cu  0.52148370  0.75122318  0.00892247     1.04300
C2353       C  0.49220928  0.75039483  0.96391949     0.92700
C2354       C  0.49480144  0.75224378  0.05476296     0.91800
C2355       C  0.49600023  0.81100074  0.00853900     0.84000
C2356       C  0.49562316  0.69159790  0.00989718     0.90300
O2357       O  0.70747581  0.50022786  0.04099096    -0.73500
O2358       O  0.71363345  0.49920518  0.97250617    -0.74500
O2359       O  0.71116583  0.95413010  0.00724018    -0.63100
O2360       O  0.71125691  0.54530763  0.00633239    -0.71500
O2361       O  0.76121126  0.54476276  0.00884455    -0.71100
O2362       O  0.76115712  0.95470537  0.00925847    -0.62300
O2363       O  0.76370780  0.49958366  0.97422459    -0.74800
O2364       O  0.75746595  0.49996975  0.04374229    -0.73600
Cu2365     Cu  0.70918030  0.49971403  0.00667155     1.04600
Cu2366     Cu  0.76266048  0.49975708  0.00912173     1.04300
C2367       C  0.73134454  0.50013185  0.05323253     0.92700
C2368       C  0.73923810  0.49939413  0.96247740     0.91800
C2369       C  0.73637836  0.94004240  0.00842440     0.84000
C2370       C  0.73645905  0.55940754  0.00746756     0.90300
O2371       O  0.71912127  0.74858773  0.04450449    -0.73500
O2372       O  0.71295628  0.75064536  0.97498009    -0.74500
O2373       O  0.71534112  0.70464726  0.00893403    -0.63100
O2374       O  0.71528031  0.79467254  0.01041858    -0.71500
O2375       O  0.76522514  0.79531791  0.00782163    -0.71100
O2376       O  0.76531186  0.70415106  0.00657391    -0.62300
O2377       O  0.76299843  0.75058862  0.97301388    -0.74800
O2378       O  0.76907326  0.74886976  0.04131432    -0.73600
Cu2379     Cu  0.71391042  0.74964025  0.00981294     1.04600
Cu2380     Cu  0.76736844  0.74973848  0.00709865     1.04300
C2381       C  0.74539776  0.74839031  0.05375098     0.92700
C2382       C  0.73729291  0.75089739  0.96311065     0.91800
C2383       C  0.74010589  0.69003387  0.00752706     0.84000
C2384       C  0.74001261  0.80936997  0.00923374     0.90300
O2385       O  0.98543203  0.49625685  0.88690456    -0.73500
O2386       O  0.98330406  0.49859450  0.81793657    -0.74500
O2387       O  0.98411513  0.95165643  0.85171602    -0.63100
O2388       O  0.98525140  0.54246934  0.85322194    -0.71500
O2389       O  0.52147718  0.54546933  0.85448871    -0.71100
O2390       O  0.52050973  0.95575047  0.85565417    -0.62300
O2391       O  0.52528322  0.49938907  0.82048159    -0.74800
O2392       O  0.51492392  0.50135335  0.88960478    -0.73600
Cu2393     Cu  0.98274448  0.49721113  0.85244025     1.04600
Cu2394     Cu  0.52226595  0.50048609  0.85523177     1.04300
C2395       C  0.01089539  0.49641705  0.89723222     0.92700
C2396       C  0.00788955  0.49777451  0.80647393     0.91800
C2397       C  0.00909500  0.93711511  0.85160879     0.84000
C2398       C  0.01050080  0.55644738  0.85250697     0.90300
O2399       O  0.98940084  0.74736377  0.88933470    -0.73500
O2400       O  0.98369179  0.74530322  0.82043027    -0.74500
O2401       O  0.98702058  0.70132119  0.85560341    -0.63100
O2402       O  0.98580244  0.79168880  0.85421852    -0.71500
O2403       O  0.52702134  0.79676535  0.85318013    -0.71100
O2404       O  0.52766438  0.70529080  0.85151955    -0.62300
O2405       O  0.52428865  0.75261951  0.81820707    -0.74800
O2406       O  0.53236518  0.75000740  0.88646566    -0.73600
Cu2407     Cu  0.98476711  0.74638484  0.85499805     1.04600
Cu2408     Cu  0.52959189  0.75113434  0.85222628     1.04300
C2409       C  0.01518626  0.74736573  0.89925681     0.92700
C2410       C  0.00790366  0.74669289  0.80853600     0.91800
C2411       C  0.01203774  0.68709165  0.85418072     0.84000
C2412       C  0.01058938  0.80642773  0.85347096     0.90300
O2413       O  0.73776796  0.50161096  0.88867565    -0.73500
O2414       O  0.73344992  0.50138080  0.81973169    -0.74500
O2415       O  0.73587372  0.95654421  0.85423710    -0.63100
O2416       O  0.73518433  0.54698671  0.85418836    -0.71500
O2417       O  0.78523222  0.54750028  0.85325273    -0.71100
O2418       O  0.78584287  0.95679609  0.85185522    -0.62300
O2419       O  0.78348747  0.50341547  0.81794923    -0.74800
O2420       O  0.78782613  0.50126315  0.88723250    -0.73600
Cu2421     Cu  0.73387738  0.50164431  0.85427314     1.04600
Cu2422     Cu  0.78738614  0.50224040  0.85250846     1.04300
C2423       C  0.76335699  0.50118824  0.89887653     0.92700
C2424       C  0.75777878  0.50253662  0.80795555     0.91800
C2425       C  0.76090508  0.94230101  0.85299404     0.84000
C2426       C  0.76005758  0.56161903  0.85380580     0.90300
O2427       O  0.73480181  0.75175110  0.88878083    -0.73500
O2428       O  0.73349795  0.75320833  0.81992329    -0.74500
O2429       O  0.73409123  0.70682301  0.85396809    -0.63100
O2430       O  0.73482604  0.79758095  0.85471459    -0.71500
O2431       O  0.78485392  0.79701283  0.85315971    -0.71100
O2432       O  0.78415987  0.70659617  0.85404503    -0.62300
O2433       O  0.78359755  0.75100493  0.81904102    -0.74800
O2434       O  0.78492522  0.75225232  0.88822677    -0.73600
Cu2435     Cu  0.73256435  0.75232063  0.85436675     1.04600
Cu2436     Cu  0.78614164  0.75171197  0.85360955     1.04300
C2437       C  0.76005456  0.75197951  0.89938452     0.92700
C2438       C  0.75820603  0.75229383  0.80862901     0.91800
C2439       C  0.75909573  0.69233332  0.85402704     0.84000
C2440       C  0.76000391  0.81166299  0.85384290     0.90300
O2441       O  0.54668003  0.96944145  0.66308924    -0.73500
O2442       O  0.95630278  0.98045701  0.66234504    -0.74500
O2443       O  0.99993031  0.98426265  0.62645971    -0.63100
O2444       O  0.00339966  0.97857177  0.69559432    -0.71500
O2445       O  0.00113172  0.52885600  0.69783937    -0.71100
O2446       O  0.00016493  0.53447751  0.62915832    -0.62300
O2447       O  0.95531897  0.53073660  0.66387646    -0.74800
O2448       O  0.54589802  0.51933080  0.66228245    -0.73600
Cu2449     Cu  0.00147301  0.97956281  0.66097285     1.04600
Cu2450     Cu  0.00067741  0.53328408  0.66355556     1.04300
C2451       C  0.56069598  0.49456578  0.66251350     0.92700
C2452       C  0.94145765  0.50541077  0.66341169     0.91800
C2453       C  0.99994860  0.51051927  0.61698138     0.84000
C2454       C  0.00265742  0.50306471  0.70760185     0.90300
O2455       O  0.95615440  0.78081164  0.66532509    -0.73500
O2456       O  0.54668713  0.78228354  0.66551166    -0.74500
O2457       O  0.00094277  0.78236928  0.63061728    -0.63100
O2458       O  0.00212625  0.77792004  0.69956934    -0.71500
O2459       O  0.00010877  0.72789769  0.69781278    -0.71100
O2460       O  0.00117278  0.73231930  0.62862845    -0.62300
O2461       O  0.54619656  0.73223830  0.66505727    -0.74800
O2462       O  0.95553315  0.73085663  0.66280760    -0.73600
Cu2463     Cu  0.00141445  0.78189126  0.66514425     1.04600
Cu2464     Cu  0.00071714  0.72838945  0.66314952     1.04300
C2465       C  0.94149675  0.75603661  0.66390470     0.92700
C2466       C  0.56083940  0.75712111  0.66558410     0.91800
C2467       C  0.00100426  0.75811859  0.61874397     0.84000
C2468       C  0.00138483  0.75223741  0.70958645     0.90300
O2469       O  0.75178223  0.52666370  0.69729777    -0.73500
O2470       O  0.75012241  0.52269199  0.62788705    -0.74500
O2471       O  0.70527365  0.52349306  0.66314254    -0.63100
O2472       O  0.79587796  0.52605944  0.66215467    -0.71500
O2473       O  0.79718826  0.97607768  0.66521524    -0.71100
O2474       O  0.70652880  0.97348712  0.66372230    -0.62300
O2475       O  0.75276405  0.97266152  0.63009654    -0.74800
O2476       O  0.75074012  0.97656582  0.69884745    -0.73600
Cu2477     Cu  0.75065723  0.52651100  0.66256033     1.04600
Cu2478     Cu  0.75185386  0.97299500  0.66451932     1.04300
C2479       C  0.75150397  0.50214938  0.70893389     0.92700
C2480       C  0.75158327  0.49685498  0.61810562     0.91800
C2481       C  0.69153052  0.49808994  0.66331734     0.84000
C2482       C  0.81091391  0.50153715  0.66384767     0.90300
O2483       O  0.75176860  0.78046236  0.69944041    -0.73500
O2484       O  0.75069121  0.78316887  0.63052266    -0.74500
O2485       O  0.70601235  0.78158695  0.66549885    -0.63100
O2486       O  0.79659261  0.78198690  0.66449994    -0.71500
O2487       O  0.79670904  0.73198845  0.66248005    -0.71100
O2488       O  0.70618138  0.73153461  0.66505998    -0.62300
O2489       O  0.74999035  0.73308592  0.62913255    -0.74800
O2490       O  0.75367140  0.73038224  0.69828137    -0.73600
Cu2491     Cu  0.75125164  0.78353020  0.66502146     1.04600
Cu2492     Cu  0.75159698  0.72998522  0.66369716     1.04300
C2493       C  0.75326249  0.75501440  0.70972437     0.92700
C2494       C  0.75015944  0.75868139  0.61894548     0.91800
C2495       C  0.69171092  0.75652465  0.66557403     0.84000
C2496       C  0.81100128  0.75702311  0.66327521     0.90300
C2497       C  0.86031076  0.72953636  0.66235531    -0.13900
C2498       C  0.84438492  0.75696666  0.66296175     0.08200
C2499       C  0.86066953  0.78418667  0.66358375    -0.13900
C2500       C  0.89223064  0.78393264  0.66382807    -0.13900
C2501       C  0.90812315  0.75645562  0.66345432     0.08200
C2502       C  0.89181689  0.72928310  0.66259478    -0.13900
H2503       H  0.84843804  0.70817300  0.66183947     0.12200
H2504       H  0.84904541  0.80569477  0.66399615     0.12200
H2505       H  0.90416175  0.80526333  0.66437605     0.12200
H2506       H  0.90338541  0.70774442  0.66221963     0.12200
C2507       C  0.61062501  0.78409434  0.66651447    -0.13900
C2508       C  0.59432844  0.75686167  0.66613349     0.08200
C2509       C  0.61036844  0.72945652  0.66601451    -0.13900
C2510       C  0.64196984  0.72930132  0.66601022    -0.13900
C2511       C  0.65824081  0.75655266  0.66612281     0.08200
C2512       C  0.64219145  0.78393956  0.66651067    -0.13900
H2513       H  0.59899625  0.80560473  0.66666861     0.12200
H2514       H  0.59850992  0.70807842  0.66577566     0.12200
H2515       H  0.65364120  0.70781557  0.66576972     0.12200
H2516       H  0.65401436  0.80534160  0.66666432     0.12200
C2517       C  0.89115135  0.53112414  0.66121429    -0.13900
C2518       C  0.90807939  0.50455903  0.66403056     0.08200
C2519       C  0.89278069  0.97682689  0.66715940    -0.13900
C2520       C  0.86123857  0.97589233  0.66724797    -0.13900
C2521       C  0.84431931  0.50258526  0.66416832     0.08200
C2522       C  0.85961007  0.53014392  0.66124716    -0.13900
H2523       H  0.90226839  0.55265475  0.65871625     0.12200
H2524       H  0.90517580  0.95597377  0.66953191     0.12200
H2525       H  0.85012013  0.95434921  0.66967528     0.12200
H2526       H  0.84721358  0.55098237  0.65882065     0.12200
C2527       C  0.60957337  0.02312501  0.66452574    -0.13900
C2528       C  0.59417330  0.49535692  0.66247387     0.08200
C2529       C  0.61108894  0.46860087  0.66078487    -0.13900
C2530       C  0.64267601  0.46948826  0.66107210    -0.13900
C2531       C  0.65805893  0.49714998  0.66306087     0.08200
C2532       C  0.64113376  0.02398616  0.66481881    -0.13900
H2533       H  0.59725078  0.04416177  0.66597717     0.12200
H2534       H  0.59992943  0.44694380  0.65922562     0.12200
H2535       H  0.65504478  0.44847303  0.65968272     0.12200
H2536       H  0.65227831  0.04564447  0.66644193     0.12200
C2537       C  0.77515315  0.73321957  0.77036697    -0.13900
C2538       C  0.75724167  0.75300436  0.78336259     0.08200
C2539       C  0.73805612  0.77340780  0.77206324    -0.13900
C2540       C  0.73713691  0.77435844  0.74804321    -0.13900
C2541       C  0.75456153  0.75416534  0.73501568     0.08200
C2542       C  0.77341613  0.73342443  0.74632764    -0.13900
H2543       H  0.79000137  0.71725298  0.77883234     0.12200
H2544       H  0.72415488  0.78891531  0.78184047     0.12200
H2545       H  0.72242584  0.79049698  0.73962652     0.12200
H2546       H  0.78716891  0.71779000  0.73655249     0.12200
C2547       C  0.73346798  0.89295010  0.85462451    -0.13900
C2548       C  0.76084118  0.90887871  0.85300420     0.08200
C2549       C  0.78799135  0.89255331  0.85158783    -0.13900
C2550       C  0.78775477  0.86097926  0.85186704    -0.13900
C2551       C  0.76035836  0.84507939  0.85355739     0.08200
C2552       C  0.73323112  0.86142804  0.85489300    -0.13900
H2553       H  0.71214507  0.90483449  0.85574787     0.12200
H2554       H  0.80944969  0.90415874  0.85030726     0.12200
H2555       H  0.80904686  0.84903816  0.85075701     0.12200
H2556       H  0.71174522  0.84987624  0.85619204     0.12200
C2557       C  0.78689646  0.61139923  0.85314560    -0.13900
C2558       C  0.75972627  0.59505703  0.85397194     0.08200
C2559       C  0.73228270  0.61099032  0.85489898    -0.13900
C2560       C  0.73202442  0.64256889  0.85493859    -0.13900
C2561       C  0.75920544  0.65889237  0.85406259     0.08200
C2562       C  0.78663932  0.64293914  0.85320094    -0.13900
H2563       H  0.80842303  0.59983006  0.85241562     0.12200
H2564       H  0.71095327  0.59906756  0.85557736     0.12200
H2565       H  0.71052329  0.65418233  0.85565870     0.12200
H2566       H  0.80799457  0.65481801  0.85250909     0.12200
C2567       C  0.77567108  0.52094531  0.76962910    -0.13900
C2568       C  0.75605803  0.50277206  0.78262311     0.08200
C2569       C  0.73507368  0.98434236  0.77123222    -0.13900
C2570       C  0.73371631  0.98407617  0.74719648    -0.13900
C2571       C  0.75247886  0.50312288  0.73423219     0.08200
C2572       C  0.77352858  0.52152104  0.74559407    -0.13900
H2573       H  0.79231585  0.53500126  0.77809519     0.12200
H2574       H  0.72020784  0.96965052  0.78091921     0.12200
H2575       H  0.71780513  0.96922280  0.73869638     0.12200
H2576       H  0.78879401  0.53572003  0.73584133     0.12200
C2577       C  0.98847432  0.72689272  0.77109942    -0.13900
C2578       C  0.00608537  0.74781758  0.78328485     0.08200
C2579       C  0.51495416  0.77503513  0.77174239    -0.13900
C2580       C  0.51507379  0.77611721  0.74774016    -0.13900
C2581       C  0.00260231  0.75076363  0.73493659     0.08200
C2582       C  0.98718888  0.72801200  0.74702811    -0.13900
H2583       H  0.97618828  0.70941932  0.78018437     0.12200
H2584       H  0.52887764  0.79078106  0.78127845     0.12200
H2585       H  0.52910922  0.79266059  0.73912448     0.12200
H2586       H  0.97382432  0.71142177  0.73787988     0.12200
C2587       C  0.52513648  0.89274277  0.85381899    -0.13900
C2588       C  0.00924014  0.90367294  0.85191048     0.08200
C2589       C  0.98210070  0.88725228  0.85239574    -0.13900
C2590       C  0.98250677  0.85567161  0.85296131    -0.13900
C2591       C  0.01005785  0.83985652  0.85303833     0.08200
C2592       C  0.52666926  0.86123975  0.85410526    -0.13900
H2593       H  0.54605987  0.90539521  0.85374759     0.12200
H2594       H  0.96053649  0.89878801  0.85237957     0.12200
H2595       H  0.96121596  0.84365475  0.85331196     0.12200
H2596       H  0.54862881  0.85047238  0.85425772     0.12200
C2597       C  0.52644132  0.60886008  0.85365572    -0.13900
C2598       C  0.01106455  0.58985889  0.85313829     0.08200
C2599       C  0.98401637  0.60630100  0.85466145    -0.13900
C2600       C  0.98443305  0.63781354  0.85516091    -0.13900
C2601       C  0.01190982  0.65365852  0.85412352     0.08200
C2602       C  0.52792959  0.64041342  0.85361776    -0.13900
H2603       H  0.54732906  0.59618055  0.85440524     0.12200
H2604       H  0.96244110  0.59483179  0.85541492     0.12200
H2605       H  0.96314161  0.64976055  0.85624269     0.12200
H2606       H  0.54982552  0.65125248  0.85440472     0.12200
C2607       C  0.52087015  0.97884214  0.77119205    -0.13900
C2608       C  0.00669877  0.49898668  0.78123828     0.08200
C2609       C  0.98970213  0.52151651  0.77028885    -0.13900
C2610       C  0.98869001  0.52302386  0.74628659    -0.13900
C2611       C  0.00382233  0.50138802  0.73290806     0.08200
C2612       C  0.52045127  0.97739721  0.74711440    -0.13900
H2613       H  0.53371427  0.96228500  0.78081886     0.12200
H2614       H  0.97763256  0.53822071  0.78033176     0.12200
H2615       H  0.97572313  0.54083050  0.73816616     0.12200
H2616       H  0.53332375  0.95994920  0.73849299     0.12200
C2617       C  0.73573126  0.75146073  0.93774551    -0.17000
C2618       C  0.76089686  0.75182991  0.92472836    -0.32200
H2619       H  0.71360187  0.75143648  0.92967159     0.12000
H2620       H  0.78298660  0.75188084  0.93287707     0.12600
C2621       C  0.76500202  0.89123066  0.00921425    -0.13900
C2622       C  0.73718673  0.90661100  0.00883903     0.08200
C2623       C  0.71036108  0.88972758  0.00885585    -0.13900
C2624       C  0.71133496  0.85817884  0.00913607    -0.13900
C2625       C  0.73915783  0.84280191  0.00933945     0.08200
C2626       C  0.76597596  0.85968808  0.00941835    -0.13900
H2627       H  0.78611455  0.90356463  0.00925016     0.12200
H2628       H  0.68859321  0.90087372  0.00862566     0.12200
H2629       H  0.69022788  0.84583501  0.00905476     0.12200
H2630       H  0.78774577  0.84854507  0.00961263     0.12200
C2631       C  0.76508642  0.60818967  0.00826437    -0.13900
C2632       C  0.73729408  0.59283160  0.00720935     0.08200
C2633       C  0.71052190  0.60972885  0.00596571    -0.13900
C2634       C  0.71150692  0.64127211  0.00595409    -0.13900
C2635       C  0.73929322  0.65662154  0.00712468     0.08200
C2636       C  0.76607478  0.63972880  0.00818022    -0.13900
H2637       H  0.78615912  0.59584192  0.00921577     0.12200
H2638       H  0.68877872  0.59859884  0.00508464     0.12200
H2639       H  0.69043888  0.65363517  0.00504756     0.12200
H2640       H  0.78781074  0.65086440  0.00912683     0.12200
C2641       C  0.76477531  0.50060255  0.92432294    -0.17000
C2642       C  0.73950365  0.49955158  0.93709313    -0.32200
H2643       H  0.78675820  0.50106218  0.93261745     0.12000
H2644       H  0.71755419  0.99915130  0.92858903     0.12600
C2645       C  0.01711112  0.74798231  0.92463611    -0.17000
C2646       C  0.48921148  0.75001809  0.93866394    -0.32200
H2647       H  0.53565773  0.74974146  0.93116805     0.12000
H2648       H  0.97005018  0.74906425  0.92944625     0.12600
C2649       C  0.96623753  0.89208151  0.00726697    -0.13900
C2650       C  0.50179885  0.90817241  0.00793296     0.08200
C2651       C  0.52804235  0.89047700  0.00737917    -0.13900
C2652       C  0.52603150  0.85896611  0.00747564    -0.13900
C2653       C  0.49772552  0.84442041  0.00813362     0.08200
C2654       C  0.96519800  0.86053725  0.00733626    -0.13900
H2655       H  0.94515597  0.90447509  0.00706610     0.12200
H2656       H  0.55013240  0.90095144  0.00695404     0.12200
H2657       H  0.54675600  0.84599371  0.00711324     0.12200
H2658       H  0.94340601  0.84944294  0.00724033     0.12200
C2659       C  0.52755092  0.61211220  0.00867189    -0.13900
C2660       C  0.50134705  0.59442638  0.00972440     0.08200
C2661       C  0.96630826  0.60889606  0.00763493    -0.13900
C2662       C  0.96527529  0.64042439  0.00837420    -0.13900
C2663       C  0.49727022  0.65817203  0.00997608     0.08200
C2664       C  0.52553762  0.64360586  0.00879141    -0.13900
H2665       H  0.54961433  0.60164236  0.00767023     0.12200
H2666       H  0.94523357  0.59650714  0.00801923     0.12200
H2667       H  0.94350277  0.65150398  0.00926047     0.12200
H2668       H  0.54624303  0.65655221  0.00787814     0.12200
C2669       C  0.50748288  0.50233533  0.93798824    -0.17000
C2670       C  0.01239524  0.49681132  0.92255528    -0.32200
H2671       H  0.53026634  0.00318286  0.93095232     0.12000
H2672       H  0.03472949  0.49635986  0.93029942     0.12600
C2673       C  0.74989262  0.76063769  0.59361477    -0.17000
C2674       C  0.74998647  0.73623382  0.57984889    -0.32200
H2675       H  0.74986386  0.78309853  0.58608018     0.12000
H2676       H  0.75007232  0.71371278  0.58727031     0.12600
C2677       C  0.75101284  0.51768523  0.57835752    -0.17000
C2678       C  0.75176173  0.49398655  0.59281856    -0.32200
H2679       H  0.75037675  0.54054832  0.58510861     0.12000
H2680       H  0.75250037  0.97111384  0.58590642     0.12600
C2681       C  0.85925245  0.71705360  0.50705927    -0.13900
C2682       C  0.84314940  0.74427980  0.50916614     0.08200
C2683       C  0.85933913  0.77141204  0.51135591    -0.13900
C2684       C  0.89090260  0.77133618  0.51139294    -0.13900
C2685       C  0.90701586  0.74412995  0.50924206     0.08200
C2686       C  0.89083043  0.71697758  0.50709794    -0.13900
H2687       H  0.84746500  0.69574967  0.50535201     0.12200
H2688       H  0.84763101  0.79276529  0.51304079     0.12200
H2689       H  0.90267542  0.79264750  0.51309435     0.12200
H2690       H  0.90255062  0.69563130  0.50540618     0.12200
C2691       C  0.60918953  0.77088404  0.51190893    -0.13900
C2692       C  0.59323750  0.74361912  0.50962688     0.08200
C2693       C  0.60949714  0.71653071  0.50742303    -0.13900
C2694       C  0.64103802  0.71672437  0.50738198    -0.13900
C2695       C  0.65699034  0.74401016  0.50956384     0.08200
C2696       C  0.64072550  0.77107652  0.51187597    -0.13900
H2697       H  0.59731852  0.79213304  0.51369832     0.12200
H2698       H  0.59786708  0.69514822  0.50565515     0.12200
H2699       H  0.65291097  0.69547655  0.50559021     0.12200
H2700       H  0.65235017  0.79246139  0.51363873     0.12200
C2701       C  0.00089256  0.73626729  0.57950850    -0.17000
C2702       C  0.00083874  0.76051290  0.59342677    -0.32200
H2703       H  0.00110996  0.71367596  0.58680611     0.12000
H2704       H  0.50307083  0.78357090  0.58587714     0.12600
C2705       C  0.89209372  0.97465537  0.50644829    -0.13900
C2706       C  0.90862315  0.00173331  0.50731786     0.08200
C2707       C  0.89297931  0.52928128  0.50848682    -0.13900
C2708       C  0.86145527  0.52973972  0.50892360    -0.13900
C2709       C  0.84479685  0.00262129  0.50838705     0.08200
C2710       C  0.86050174  0.97509271  0.50705278    -0.13900
H2711       H  0.90355644  0.95310323  0.50536343     0.12200
H2712       H  0.90501238  0.55055086  0.50911030     0.12200
H2713       H  0.85005772  0.55134009  0.50987751     0.12200
H2714       H  0.84838058  0.95388237  0.50628937     0.12200
C2715       C  0.60979416  0.98337658  0.50810894    -0.13900
C2716       C  0.59475114  0.01136556  0.50827868     0.08200
C2717       C  0.61209372  0.53823083  0.50804718    -0.13900
C2718       C  0.64365617  0.53686162  0.50764173    -0.13900
C2719       C  0.65856104  0.00862953  0.50756705     0.08200
C2720       C  0.64131870  0.98202515  0.50780584    -0.13900
H2721       H  0.59720990  0.96241289  0.50824754     0.12200
H2722       H  0.60121398  0.56012964  0.50804376     0.12200
H2723       H  0.65630432  0.55778389  0.50741841     0.12200
H2724       H  0.65217351  0.96011175  0.50771599     0.12200
C2725       C  0.00093596  0.48996946  0.57735407    -0.17000
C2726       C  0.99988768  0.51367543  0.59174467    -0.32200
H2727       H  0.00153356  0.46712401  0.58416237     0.12000
H2728       H  0.49817659  0.96683486  0.58483221     0.12600
C2729       C  0.74769759  0.73016329  0.42417688    -0.17000
C2730       C  0.74894369  0.75380564  0.43863080    -0.32200
H2731       H  0.74710130  0.70734565  0.43104049     0.12000
H2732       H  0.74951255  0.77663615  0.43178762     0.12600
C2733       C  0.75551606  0.01402234  0.42277039    -0.17000
C2734       C  0.75345390  0.99121942  0.43791319    -0.32200
H2735       H  0.75672813  0.03713811  0.42896769     0.12000
H2736       H  0.75200883  0.46812490  0.43181130     0.12600
C2737       C  0.99913785  0.72943995  0.42388762    -0.17000
C2738       C  0.99933119  0.75321630  0.43826751    -0.32200
H2739       H  0.99930619  0.70664702  0.43081202     0.12000
H2740       H  0.49981564  0.77392248  0.43181634     0.12600
C2741       C  0.88877080  0.76649309  0.35558127    -0.13900
C2742       C  0.90477815  0.73912785  0.35435992     0.08200
C2743       C  0.88854720  0.71190547  0.35334979    -0.13900
C2744       C  0.85702778  0.71203275  0.35341333    -0.13900
C2745       C  0.84099404  0.73938117  0.35447704     0.08200
C2746       C  0.85719584  0.76662117  0.35563933    -0.13900
H2747       H  0.90062741  0.78784827  0.35640573     0.12200
H2748       H  0.90018627  0.69043229  0.35243935     0.12200
H2749       H  0.84523093  0.69064608  0.35254443     0.12200
H2750       H  0.84549576  0.78806364  0.35650497     0.12200
C2751       C  0.60698329  0.76461293  0.35677112    -0.13900
C2752       C  0.59100972  0.73757383  0.35330555     0.08200
C2753       C  0.60731220  0.71074808  0.34972384    -0.13900
C2754       C  0.63889058  0.71097528  0.34959127    -0.13900
C2755       C  0.65484953  0.73803568  0.35302956     0.08200
C2756       C  0.63853151  0.76484282  0.35662423    -0.13900
H2757       H  0.59511630  0.78566006  0.35963698     0.12200
H2758       H  0.59568267  0.68954133  0.34699843     0.12200
H2759       H  0.65079123  0.68993652  0.34677524     0.12200
H2760       H  0.65013003  0.78605570  0.35940116     0.12200
C2761       C  0.00095854  0.99019819  0.42186590    -0.17000
C2762       C  0.00192120  0.01346310  0.43667065    -0.32200
H2763       H  0.00014309  0.96722090  0.42840567     0.12000
H2764       H  0.50231671  0.54006161  0.43050636     0.12600
C2765       C  0.86175686  0.97447458  0.34857907    -0.13900
C2766       C  0.84610815  0.00211643  0.34929924     0.08200
C2767       C  0.86258411  0.52880724  0.34967721    -0.13900
C2768       C  0.89415525  0.52814327  0.34968134    -0.13900
C2769       C  0.90997523  0.00078434  0.34906878     0.08200
C2770       C  0.89332806  0.97381587  0.34840317    -0.13900
H2771       H  0.84960372  0.95326178  0.34828116     0.12200
H2772       H  0.85122721  0.55045192  0.35023378     0.12200
H2773       H  0.90629683  0.54935594  0.35016443     0.12200
H2774       H  0.90467940  0.95216203  0.34803494     0.12200
C2775       C  0.61170080  0.52770345  0.35237827    -0.13900
C2776       C  0.59630591  0.00056799  0.35588904     0.08200
C2777       C  0.61295361  0.97389398  0.35902156    -0.13900
C2778       C  0.64450727  0.97452916  0.35873944    -0.13900
C2779       C  0.66005468  0.00184140  0.35524594     0.08200
C2780       C  0.64322381  0.52832202  0.35202783    -0.13900
H2781       H  0.59950678  0.54860431  0.34967122     0.12200
H2782       H  0.60160748  0.95251282  0.36166812     0.12200
H2783       H  0.65671099  0.95357737  0.36116923     0.12200
H2784       H  0.65451851  0.54966764  0.34910482     0.12200
C2785       C  0.72631111  0.74675141  0.09382247    -0.17000
C2786       C  0.74941123  0.74768334  0.07893608    -0.32200
H2787       H  0.70323319  0.74638829  0.08746792     0.12000
H2788       H  0.77243362  0.74805324  0.08541251     0.12600
C2789       C  0.73210173  0.76939496  0.24749983    -0.13900
C2790       C  0.74888034  0.74867036  0.23443452     0.08200
C2791       C  0.76671597  0.72709442  0.24571445    -0.13900
C2792       C  0.76682132  0.72551416  0.26977494    -0.13900
C2793       C  0.74989433  0.74613757  0.28287856     0.08200
C2794       C  0.73303525  0.76849526  0.27155255    -0.13900
H2795       H  0.71815712  0.78617936  0.23905702     0.12200
H2796       H  0.77959416  0.71076285  0.23590671     0.12200
H2797       H  0.78009907  0.70816426  0.27816878     0.12200
H2798       H  0.71975228  0.78456481  0.28129585     0.12200
C2799       C  0.75193544  0.49970770  0.09266873    -0.17000
C2800       C  0.72805690  0.50001125  0.07850587    -0.32200
H2801       H  0.77461273  0.99971186  0.08550654     0.12000
H2802       H  0.70534869  0.49990844  0.08559704     0.12600
C2803       C  0.71616530  0.88900309  0.16418002    -0.13900
C2804       C  0.74406243  0.90404377  0.16234398     0.08200
C2805       C  0.77061760  0.88685880  0.16085812    -0.13900
C2806       C  0.76928475  0.85532333  0.16113685    -0.13900
C2807       C  0.74137401  0.84029093  0.16299239     0.08200
C2808       C  0.71484056  0.85749199  0.16453337    -0.13900
H2809       H  0.69526429  0.90158657  0.16546706     0.12200
H2810       H  0.79243125  0.89775733  0.15944820     0.12200
H2811       H  0.79018373  0.84272270  0.15993401     0.12200
H2812       H  0.69302068  0.84662456  0.16601840     0.12200
C2813       C  0.76854656  0.63894324  0.16397414    -0.13900
C2814       C  0.74059839  0.65405060  0.16526019     0.08200
C2815       C  0.71405831  0.63686733  0.16680612    -0.06700
C2816       C  0.71543260  0.60530563  0.16678450    -0.13900
C2817       C  0.74338447  0.59021866  0.16532183     0.08200
C2818       C  0.76992731  0.60741074  0.16406076    -0.13900
H2819       H  0.78947637  0.65149407  0.16282966     0.12200
H2820       H  0.69221530  0.64778262  0.16785775     0.12200
H2821       H  0.69451929  0.59271454  0.16785659     0.12200
H2822       H  0.79177001  0.59651504  0.16289880     0.12200
C2823       C  0.72400053  0.51241130  0.24647229    -0.13900
C2824       C  0.74329117  0.99358626  0.23388066     0.08200
C2825       C  0.76351857  0.97458187  0.24563012    -0.13900
C2826       C  0.76475349  0.97478738  0.26968188    -0.13900
C2827       C  0.74655147  0.99479535  0.28220302     0.08200
C2828       C  0.72598527  0.51332581  0.27046153    -0.13900
H2829       H  0.70849448  0.52745673  0.23771758     0.12200
H2830       H  0.77844790  0.95970806  0.23616601     0.12200
H2831       H  0.78068079  0.96020257  0.27844991     0.12200
H2832       H  0.71174267  0.52889340  0.27989058     0.12200
C2833       C  0.51677241  0.75280451  0.09418296    -0.17000
C2834       C  0.49283488  0.75280178  0.08007977    -0.32200
H2835       H  0.53948478  0.75239561  0.08711840     0.12000
H2836       H  0.96206920  0.75178404  0.08628684     0.12600
C2837       C  0.97713842  0.73001513  0.24536012    -0.13900
C2838       C  0.99549646  0.75142209  0.23435235     0.08200
C2839       C  0.51767233  0.76967795  0.24891785    -0.13900
C2840       C  0.51666960  0.76746864  0.27291168    -0.13900
C2841       C  0.99586344  0.74645208  0.28269068     0.08200
C2842       C  0.97771979  0.72719310  0.26935822    -0.13900
H2843       H  0.96310849  0.71488948  0.23535308     0.12200
H2844       H  0.53385595  0.78479948  0.24100195     0.12200
H2845       H  0.53211662  0.78086410  0.28313964     0.12200
H2846       H  0.96382790  0.71015387  0.27753225     0.12200
C2847       C  0.50995117  0.50072795  0.07951394    -0.17000
C2848       C  0.48681218  0.50191488  0.09429546    -0.32200
H2849       H  0.03001294  0.00244832  0.08314047     0.12000
H2850       H  0.46375715  0.50250195  0.08783911     0.12600
C2851       C  0.52937147  0.89530062  0.16493725    -0.13900
C2852       C  0.99694493  0.91102581  0.16389635     0.08200
C2853       C  0.97016077  0.89421253  0.16566342    -0.13900
C2854       C  0.97106985  0.86262455  0.16587495    -0.13900
C2855       C  0.99879008  0.84717532  0.16442579     0.08200
C2856       C  0.53067137  0.86377735  0.16473888    -0.13900
H2857       H  0.55037052  0.90782496  0.16469146     0.12200
H2858       H  0.94848339  0.90544160  0.16676473     0.12200
H2859       H  0.95001716  0.85030506  0.16717185     0.12200
H2860       H  0.55254853  0.85285420  0.16432948     0.12200
C2861       C  0.53009213  0.61171770  0.16381778    -0.13900
C2862       C  0.99825562  0.59721342  0.16118031     0.08200
C2863       C  0.97151292  0.61413427  0.15999511    -0.13900
C2864       C  0.97248927  0.64563597  0.16044298    -0.13900
C2865       C  0.00022823  0.66096672  0.16219948     0.08200
C2866       C  0.53143871  0.64326481  0.16415971    -0.13900
H2867       H  0.55103992  0.59913518  0.16309635     0.12200
H2868       H  0.94978209  0.60304352  0.15871973     0.12200
H2869       H  0.95141039  0.65797522  0.15950217     0.12200
H2870       H  0.55329730  0.65420250  0.16358766     0.12200
C2871       C  0.98586574  0.52552803  0.26927387    -0.13900
C2872       C  0.00658676  0.00707521  0.28091450     0.08200
C2873       C  0.52436053  0.98259764  0.27088031    -0.13900
C2874       C  0.52516864  0.98343326  0.24680770    -0.13900
C2875       C  0.00542235  0.00774081  0.23249334     0.08200
C2876       C  0.98494654  0.52553963  0.24523244    -0.13900
H2877       H  0.96996060  0.53932482  0.27876183     0.12200
H2878       H  0.53602222  0.96457335  0.27982646     0.12200
H2879       H  0.53705551  0.96587913  0.23751322     0.12200
H2880       H  0.96843481  0.53953601  0.23653305     0.12200
loop_ 
_geom_bond_atom_site_label_1 
_geom_bond_atom_site_label_2 
_geom_bond_distance 
_geom_bond_site_symmetry_2 
_ccdc_geom_bond_type 
O1           Cu9   2.000       .  S
O1         C1451   1.274       .  A
O2         Cu729   1.995       .  S
O2           C12   1.275       .  A
O3           Cu9   2.022       .  S
O3         C1453   1.281       .  A
O4         Cu729   2.030       .  S
O4         C1454   1.282       .  A
O5          Cu10   1.993       .  S
O5           C14   1.276   1_455  A
O6         Cu730   1.998       .  S
O6           C13   1.276   1_455  A
O7          Cu10   2.022       .  S
O7         C1452   1.280       .  A
O8         Cu730   2.023       .  S
O8           C11   1.281   1_455  A
Cu9         O722   1.995       .  S
Cu9         O724   2.030   1_545  S
Cu9       Cu2170   2.373       .  S
Cu10        O726   1.998       .  S
Cu10        O728   2.023       .  S
Cu10      Cu2169   2.372   1_455  S
C11        O1441   1.274       .  A
C11         C688   1.475       .  S
C12        O1447   1.279       .  A
C12         C715   1.468       .  S
C13        O1443   1.280       .  A
C13        C2142   1.480       .  S
C14        O1444   1.281       .  A
C14        C2132   1.482       .  S
O15         Cu23   2.019       .  S
O15          C25   1.279       .  A
O16         Cu23   2.019       .  S
O16        C1466   1.281       .  A
O17         Cu23   1.987       .  S
O17          C27   1.275       .  A
O18         Cu23   1.996       .  S
O18          C28   1.276       .  A
O19         Cu24   2.018       .  S
O19        C1468   1.280   1_455  A
O20         Cu24   2.025       .  S
O20        C1467   1.281       .  A
O21         Cu24   2.001       .  S
O21          C26   1.275       .  A
O22         Cu24   2.002       .  S
O22        C1465   1.276   1_455  A
Cu23      Cu1464   2.372       .  S
Cu24      Cu1463   2.372   1_455  S
C25        O1462   1.277       .  A
C25         C678   1.474       .  S
C26        O1456   1.281   1_455  A
C26         C673   1.476       .  S
C27        O1460   1.282       .  A
C27         C705   1.481       .  S
C28        O1459   1.281       .  A
C28         C695   1.481       .  S
O29         Cu37   2.008       .  S
O29          C39   1.279       .  A
O30         Cu37   2.008       .  S
O30          C40   1.278       .  A
O31         Cu37   1.997   1_545  S
O31          C41   1.276       .  A
O32        Cu757   2.004       .  S
O32          C42   1.278       .  A
O33        Cu758   2.011       .  S
O33          C42   1.279       .  A
O34         Cu38   2.020   1_545  S
O34          C41   1.280       .  A
O35         Cu38   2.011       .  S
O35          C40   1.278       .  A
O36         Cu38   2.012       .  S
O36          C39   1.277       .  A
Cu37        O752   2.003       .  S
Cu37        Cu38   2.372       .  S
Cu38        O753   2.012       .  S
C39         C639   1.478       .  S
C40        C1384   1.473       .  S
C41         C657   1.481       .  S
C42         C644   1.480       .  S
O43         Cu51   2.010       .  S
O43          C53   1.278       .  A
O44         Cu51   2.010       .  S
O44          C54   1.277       .  A
O45         Cu51   2.010       .  S
O45          C55   1.279       .  A
O46         Cu51   2.021       .  S
O46          C56   1.280       .  A
O47         Cu52   1.997       .  S
O47          C56   1.276       .  A
O48         Cu52   2.004       .  S
O48          C55   1.278       .  A
O49         Cu52   2.012       .  S
O49          C54   1.278       .  A
O50         Cu52   2.010       .  S
O50          C53   1.278       .  A
Cu51        Cu52   2.373       .  S
C53         C625   1.474       .  S
C54         C630   1.472       .  S
C55         C647   1.480       .  S
C56         C654   1.481       .  S
O57       Cu1505   2.012       .  S
O57          C67   1.279       .  A
O58         Cu65   2.022       .  S
O58          C68   1.281       .  A
O59         Cu65   2.005       .  S
O59          C69   1.277       .  A
O60         Cu65   2.002       .  S
O60          C70   1.275       .  A
O61         Cu66   2.014       .  S
O61         C790   1.280   1_545  A
O62         Cu66   2.012       .  S
O62         C789   1.279       .  A
O63         Cu66   1.998       .  S
O63         C788   1.276       .  A
O64       Cu1506   2.002       .  S
O64         C787   1.277       .  A
Cu65       O1497   2.013       .  S
Cu65       Cu786   2.373       .  S
Cu66       O1504   1.999       .  S
Cu66       Cu785   2.373   1_545  S
C67         O784   1.277       .  A
C67         C616   1.481       .  S
C68         O783   1.276       .  A
C68         C609   1.482       .  S
C69         O782   1.279       .  A
C69         C712   1.474       .  S
C70         O781   1.280       .  A
C70         C601   1.475       .  S
O71         Cu79   2.009       .  S
O71          C81   1.277       .  A
O72         Cu79   2.008       .  S
O72          C82   1.278       .  A
O73       Cu1519   2.005   1_455  S
O73          C83   1.278       .  A
O74         Cu79   2.011       .  S
O74          C84   1.279       .  A
O75         Cu80   2.002       .  S
O75          C84   1.277       .  A
O76       Cu1520   2.012   1_455  S
O76          C83   1.279       .  A
O77         Cu80   2.014       .  S
O77          C82   1.277       .  A
O78         Cu80   2.014       .  S
O78          C81   1.278       .  A
Cu79       O1513   2.004       .  S
Cu79        Cu80   2.372       .  S
Cu80       O1516   2.012       .  S
C81         C681   1.473       .  S
C82         C577   1.477       .  S
C83         C592   1.481       .  S
C84         C582   1.480       .  S
O85         Cu93   2.025       .  S
O85          C95   1.281       .  A
O86         Cu93   2.023       .  S
O86          C96   1.279       .  A
O87         Cu93   1.996       .  S
O87          C97   1.276       .  A
O88         Cu93   2.003       .  S
O88          C98   1.277       .  A
O89         Cu94   2.014       .  S
O89         C818   1.279       .  A
O90         Cu94   2.023       .  S
O90         C817   1.281       .  A
O91         Cu94   1.997       .  S
O91         C816   1.276   1_545  A
O92         Cu94   1.997       .  S
O92         C815   1.275       .  A
Cu93       Cu814   2.372       .  S
Cu94       Cu813   2.372   1_545  S
C95         O812   1.275       .  A
C95         C573   1.475       .  S
C96         O811   1.276       .  A
C96         C667   1.471       .  S
C97         O810   1.281       .  A
C97         C606   1.482       .  S
C98         O809   1.280       .  A
C98         C619   1.481       .  S
O99        Cu107   2.005       .  S
O99         C109   1.276       .  A
O100       Cu107   2.005       .  S
O100        C110   1.277       .  A
O101       Cu107   2.007       .  S
O101        C111   1.278       .  A
O102       Cu107   2.015       .  S
O102        C112   1.279       .  A
O103       Cu108   2.003       .  S
O103        C112   1.278       .  A
O104       Cu108   2.006       .  S
O104        C111   1.278       .  A
O105       Cu108   2.017       .  S
O105        C110   1.279       .  A
O106       Cu108   2.015       .  S
O106        C109   1.279       .  A
Cu107      Cu108   2.372       .  S
C109        C569   1.475       .  S
C110        C633   1.474       .  S
C111        C585   1.480       .  S
C112        C595   1.481       .  S
O113       Cu121   1.994       .  S
O113        C843   1.274       .  A
O114       Cu121   1.996       .  S
O114        C124   1.275       .  A
O115      Cu1561   2.004       .  S
O115        C845   1.278       .  A
O116       Cu121   2.023       .  S
O116        C846   1.280       .  A
O117       Cu122   1.991       .  S
O117        C126   1.276       .  A
O118      Cu1562   2.014       .  S
O118        C125   1.279       .  A
O119       Cu122   2.023       .  S
O119        C844   1.280       .  A
O120       Cu122   2.021       .  S
O120        C123   1.280       .  A
Cu121      O1555   2.023       .  S
Cu121      Cu842   2.373   1_545  S
Cu122      O1558   1.996       .  S
Cu122      Cu841   2.373       .  S
C123        O833   1.274       .  A
C123        C602   1.473       .  S
C124        O839   1.280   1_545  A
C124        C565   1.474       .  S
C125        O835   1.278       .  A
C125        C556   1.481       .  S
C126        O836   1.280       .  A
C126        C546   1.480       .  S
O127       Cu135   2.015       .  S
O127        C137   1.279       .  A
O128       Cu135   2.014       .  S
O128        C138   1.277       .  A
O129       Cu135   2.007       .  S
O129        C139   1.278       .  A
O130      Cu1575   2.010       .  S
O130        C140   1.279       .  A
O131      Cu1576   2.009       .  S
O131        C140   1.278       .  A
O132       Cu136   2.005       .  S
O132        C139   1.278       .  A
O133       Cu136   2.003       .  S
O133        C138   1.278       .  A
O134       Cu136   2.005       .  S
O134        C137   1.276       .  A
Cu135      O1570   2.006       .  S
Cu135      Cu136   2.373       .  S
Cu136      O1571   2.003       .  S
C137        C578   1.475       .  S
C138        C541   1.476       .  S
C139        C525   1.479       .  S
C140        C532   1.481       .  S
O141       Cu149   2.014       .  S
O141        C151   1.279       .  A
O142       Cu149   2.011       .  S
O142        C152   1.279       .  A
O143       Cu149   2.001       .  S
O143        C873   1.278       .  A
O144       Cu149   2.001       .  S
O144        C154   1.275       .  A
O145       Cu150   2.020       .  S
O145        C874   1.281   1_545  A
O146       Cu150   2.019       .  S
O146        C153   1.278       .  A
O147       Cu150   2.003       .  S
O147        C872   1.277       .  A
O148       Cu150   2.003       .  S
O148        C871   1.278       .  A
Cu149      Cu870   2.372       .  S
Cu150      Cu869   2.372   1_545  S
C151        O868   1.278       .  A
C151        C559   1.481       .  S
C152        O867   1.277       .  A
C152        C549   1.480       .  S
C153        O863   1.278   1_545  A
C153        C517   1.478       .  S
C154        O865   1.281       .  A
C154        C574   1.477       .  S
O155       Cu163   2.007       .  S
O155        C165   1.276       .  A
O156       Cu163   2.006       .  S
O156        C166   1.278       .  A
O157       Cu163   2.008       .  S
O157        C167   1.278       .  A
O158       Cu163   2.009       .  S
O158        C168   1.278       .  A
O159       Cu164   2.006       .  S
O159        C168   1.278       .  A
O160       Cu164   2.007       .  S
O160        C167   1.278       .  A
O161       Cu164   2.013       .  S
O161        C166   1.277       .  A
O162       Cu164   2.011       .  S
O162        C165   1.279       .  A
Cu163      Cu164   2.372       .  S
C165        C570   1.476       .  S
C166        C514   1.477       .  S
C167        C522   1.480       .  S
C168        C535   1.481       .  S
O169       Cu897   2.022       .  S
O169        C179   1.281   1_455  A
O170       Cu177   2.023       .  S
O170        C180   1.281   1_455  A
O171       Cu177   1.992       .  S
O171        C181   1.274       .  A
O172       Cu177   1.992   1_566  S
O172        C182   1.276   1_455  A
O173       Cu178   2.048   1_556  S
O173       C1622   1.284       .  A
O174       Cu178   2.048       .  S
O174       C1621   1.284       .  A
O175       Cu178   1.982       .  S
O175       C1620   1.273       .  A
O176       Cu898   1.982       .  S
O176       C1619   1.274       .  A
Cu177       O889   2.022   1_545  S
Cu177     Cu1618   2.372   1_455  S
Cu178       O896   1.982   1_545  S
Cu178     Cu1617   2.372       .  S
C179       O1616   1.276       .  A
C179        C490   1.481       .  S
C180       O1615   1.276       .  A
C180        C500   1.481       .  S
C181       O1614   1.281   1_455  A
C181        C687   1.474       .  S
C182       O1613   1.279       .  A
C182        C509   1.477       .  S
O183       Cu191   1.980   1_556  S
O183       C1633   1.271       .  A
O184       Cu191   1.979       .  S
O184       C1634   1.272       .  A
O185       Cu191   2.036       .  S
O185       C1635   1.283       .  A
O186       Cu191   2.036       .  S
O186       C1636   1.283       .  A
O187       Cu192   1.995       .  S
O187        C196   1.276   1_455  A
O188       Cu192   1.994       .  S
O188        C195   1.276   1_455  A
O189       Cu192   2.026       .  S
O189        C194   1.281   1_455  A
O190       Cu192   2.025   1_556  S
O190        C193   1.280   1_455  A
Cu191     Cu1632   2.372       .  S
Cu192     Cu1631   2.373   1_455  S
C193       O1623   1.274       .  A
C193        C486   1.472       .  S
C194       O1624   1.274       .  A
C194        C674   1.475       .  S
C195       O1625   1.281       .  A
C195        C493   1.481       .  S
C196       O1626   1.281       .  A
C196        C503   1.481       .  S
O197       Cu205   1.993       .  S
O197        C207   1.274   1_545  A
O198       Cu205   1.995   1_556  S
O198        C208   1.274       .  A
O199       Cu925   2.023       .  S
O199        C209   1.281       .  A
O200       Cu205   2.022       .  S
O200        C210   1.281       .  A
O201       Cu206   1.994       .  S
O201        C210   1.276       .  A
O202       Cu926   1.993       .  S
O202        C209   1.276       .  A
O203       Cu206   2.026   1_556  S
O203        C208   1.281       .  A
O204       Cu206   2.025   1_565  S
O204        C207   1.281       .  A
Cu205       O919   2.023   1_545  S
Cu205      Cu206   2.373       .  S
Cu206       O922   1.993   1_545  S
C207        C640   1.473       .  S
C208        C482   1.476       .  S
C209        C462   1.481       .  S
C210        C472   1.481       .  S
O211       Cu219   2.025       .  S
O211        C221   1.279       .  A
O212       Cu219   2.025   1_556  S
O212        C222   1.281       .  A
O213       Cu219   1.993       .  S
O213        C223   1.276       .  A
O214       Cu219   1.994       .  S
O214        C224   1.276       .  A
O215       Cu220   2.023       .  S
O215        C224   1.281       .  A
O216       Cu220   2.022       .  S
O216        C223   1.281       .  A
O217       Cu220   1.992   1_556  S
O217        C222   1.274       .  A
O218       Cu220   1.992       .  S
O218        C221   1.276       .  A
Cu219      Cu220   2.372       .  S
C221        C626   1.478       .  S
C222        C457   1.474       .  S
C223        C475   1.481       .  S
C224        C465   1.481       .  S
O225       Cu233   2.000       .  S
O225        C235   1.274       .  A
O226       Cu233   1.997       .  S
O226        C236   1.275       .  A
O227       Cu953   2.033       .  S
O227        C237   1.282       .  A
O228       Cu233   2.025       .  S
O228        C238   1.282       .  A
O229       Cu234   2.007   1_545  S
O229       C1678   1.278       .  A
O230       Cu954   1.998       .  S
O230       C1677   1.277       .  A
O231       Cu234   2.012       .  S
O231       C1676   1.278       .  A
O232       Cu234   2.009       .  S
O232       C1675   1.278       .  A
Cu233       O947   2.033   1_545  S
Cu233     Cu1674   2.372       .  S
Cu234       O950   1.998       .  S
Cu234     Cu1673   2.373   1_455  S
C235       O1672   1.282       .  A
C235        C510   1.480       .  S
C236       O1671   1.280   1_545  A
C236        C448   1.470       .  S
C237       O1670   1.274       .  A
C237        C428   1.481       .  S
C238       O1669   1.275       .  A
C238        C438   1.481       .  S
O239       Cu247   2.025       .  S
O239        C249   1.282       .  A
O240       Cu247   2.024       .  S
O240        C250   1.280       .  A
O241       Cu247   1.985       .  S
O241        C251   1.274       .  A
O242       Cu247   1.992       .  S
O242        C252   1.275       .  A
O243       Cu248   2.009       .  S
O243       C1692   1.279       .  A
O244       Cu248   2.017       .  S
O244       C1691   1.280       .  A
O245       Cu248   2.011       .  S
O245       C1690   1.278       .  A
O246       Cu248   2.012       .  S
O246       C1689   1.277       .  A
Cu247     Cu1688   2.373       .  S
Cu248     Cu1687   2.372   1_455  S
C249       O1686   1.273       .  A
C249        C485   1.476       .  S
C250       O1685   1.275       .  A
C250        C418   1.469       .  S
C251       O1684   1.282       .  A
C251        C441   1.481       .  S
C252       O1683   1.282       .  A
C252        C431   1.481       .  S
O253       Cu261   2.022       .  S
O253        C263   1.281       .  A
O254       Cu261   2.020       .  S
O254        C264   1.279       .  A
O255       Cu981   1.992       .  S
O255        C265   1.276       .  A
O256       Cu261   1.998       .  S
O256        C266   1.276       .  A
O257       Cu262   2.017       .  S
O257        C266   1.280       .  A
O258       Cu982   2.025       .  S
O258        C265   1.281       .  A
O259       Cu262   1.998       .  S
O259        C264   1.276       .  A
O260       Cu262   1.997       .  S
O260        C263   1.274       .  A
Cu261       O975   1.992   1_545  S
Cu261      Cu262   2.373       .  S
Cu262       O978   2.025   1_545  S
C263        C481   1.476       .  S
C264        C408   1.472       .  S
C265        C388   1.481       .  S
C266        C398   1.481       .  S
O267       Cu275   1.996       .  S
O267        C277   1.274       .  A
O268       Cu275   1.993       .  S
O268        C278   1.275       .  A
O269       Cu275   2.025       .  S
O269        C279   1.281       .  A
O270       Cu275   2.018       .  S
O270        C280   1.280       .  A
O271       Cu276   1.999       .  S
O271        C280   1.277       .  A
O272       Cu276   1.991       .  S
O272        C279   1.276       .  A
O273       Cu276   2.023       .  S
O273        C278   1.279       .  A
O274       Cu276   2.021       .  S
O274        C277   1.281       .  A
Cu275      Cu276   2.373       .  S
C277        C458   1.475       .  S
C278        C378   1.468       .  S
C279        C401   1.481       .  S
C280        C391   1.481       .  S
O281      Cu1729   1.991       .  S
O281       C1011   1.276       .  A
O282       Cu289   2.026       .  S
O282       C1012   1.280       .  A
O283       Cu289   2.012       .  S
O283       C1013   1.277       .  A
O284       Cu289   2.011       .  S
O284       C1014   1.278       .  A
O285       Cu290   2.008       .  S
O285        C294   1.278   1_545  A
O286       Cu290   2.010       .  S
O286        C293   1.279   1_545  A
O287       Cu290   1.999       .  S
O287        C292   1.277   1_545  A
O288      Cu1730   2.018       .  S
O288        C291   1.280       .  A
Cu289      O1721   2.018       .  S
Cu289     Cu1010   2.371       .  S
Cu290      O1728   2.004       .  S
Cu290     Cu1009   2.371   1_545  S
C291       O1001   1.276   1_545  A
C291        C368   1.479       .  S
C292       O1002   1.280       .  A
C292        C358   1.484       .  S
C293       O1003   1.277       .  A
C293        C566   1.478       .  S
C294       O1004   1.278       .  A
C294        C451   1.474       .  S
O295       Cu303   2.013       .  S
O295        C305   1.279       .  A
O296      Cu1743   1.998       .  S
O296        C306   1.277       .  A
O297       Cu303   2.004       .  S
O297        C307   1.276       .  A
O298       Cu303   2.004       .  S
O298        C308   1.277       .  A
O299       Cu304   2.012       .  S
O299        C308   1.278       .  A
O300       Cu304   2.012       .  S
O300        C307   1.279       .  A
O301      Cu1744   2.013       .  S
O301        C306   1.279       .  A
O302       Cu304   2.004       .  S
O302        C305   1.278       .  A
Cu303      O1736   2.009       .  S
Cu303      Cu304   2.373       .  S
Cu304      O1741   2.015       .  S
C305        C341   1.481       .  S
C306        C348   1.480       .  S
C307        C542   1.473       .  S
C308        C421   1.472       .  S
O309       Cu317   2.014       .  S
O309        C319   1.279       .  A
O310       Cu317   2.019       .  S
O310        C320   1.279   1_545  A
O311       Cu317   2.009       .  S
O311        C321   1.278       .  A
O312       Cu317   2.006       .  S
O312        C322   1.278   1_545  A
O313       Cu318   2.015       .  S
O313       C1042   1.279       .  A
O314       Cu318   2.003       .  S
O314       C1041   1.278       .  A
O315       Cu318   2.002       .  S
O315       C1040   1.276       .  A
O316       Cu318   2.003       .  S
O316       C1039   1.277       .  A
Cu317     Cu1038   2.372   1_545  S
Cu318     Cu1037   2.372       .  S
C319       O1036   1.276   1_545  A
C319        C411   1.471       .  S
C320       O1035   1.276       .  A
C320        C518   1.474       .  S
C321       O1034   1.278   1_545  A
C321        C371   1.479       .  S
C322       O1033   1.279       .  A
C322        C361   1.483       .  S
O323       Cu331   2.000       .  S
O323        C333   1.277       .  A
O324       Cu331   1.999       .  S
O324        C334   1.276       .  A
O325       Cu331   2.008       .  S
O325        C335   1.279       .  A
O326       Cu331   2.013       .  S
O326        C336   1.279       .  A
O327       Cu332   2.001       .  S
O327        C336   1.277       .  A
O328       Cu332   2.010       .  S
O328        C335   1.278       .  A
O329       Cu332   2.018       .  S
O329        C334   1.279       .  A
O330       Cu332   2.019       .  S
O330        C333   1.279       .  A
Cu331      Cu332   2.372       .  S
C333        C381   1.476       .  S
C334        C513   1.474       .  S
C335        C351   1.481       .  S
C336        C338   1.481       .  S
C337        C338   1.406       .  A
C337        C342   1.396       .  A
C337        H343   1.083       .  S
C338        C339   1.406       .  A
C339        C340   1.399       .  A
C339        H344   1.083       .  S
C340        C341   1.406       .  A
C340        H345   1.083       .  S
C341        C342   1.405       .  A
C342        H346   1.083       .  S
C347        C348   1.406       .  A
C347        C352   1.396       .  A
C347        H353   1.083       .  S
C348        C349   1.405       .  A
C349        C350   1.399       .  A
C349        H354   1.083       .  S
C350        C351   1.407       .  A
C350        H355   1.083       .  S
C351        C352   1.405       .  A
C352        H356   1.083       .  S
C357        C358   1.406       .  A
C357        C362   1.401       .  A
C357        H363   1.083       .  S
C358       C1079   1.406   1_565  A
C359        C360   1.396       .  A
C359       C1078   1.406       .  A
C359        H364   1.083       .  S
C360       C1081   1.405       .  A
C360        H365   1.083       .  S
C361        C362   1.407       .  A
C361       C1080   1.405   1_565  A
C362        H366   1.083       .  S
C367        C372   1.394       .  A
C367       C1088   1.405       .  A
C367        H373   1.083       .  S
C368        C369   1.405       .  A
C368       C1087   1.405   1_545  A
C369        C370   1.400       .  A
C369        H374   1.083       .  S
C370        C371   1.407       .  A
C370        H375   1.083       .  S
C371       C1092   1.404   1_545  A
C372       C1091   1.404       .  A
C372        H376   1.083       .  S
C377        C378   1.402       .  A
C377        C382   1.402       .  A
C377        H383   1.083       .  S
C378        C379   1.401       .  A
C379        C380   1.395       .  A
C379        H384   1.084       .  S
C380        C381   1.404       .  A
C380        H385   1.083       .  S
C381        C382   1.406       .  A
C382        H386   1.083       .  S
C387        C388   1.408       .  A
C387        C392   1.397       .  A
C387        H393   1.083       .  S
C388        C389   1.404       .  A
C389        C390   1.399       .  A
C389        H394   1.083       .  S
C390        C391   1.408       .  A
C390        H395   1.083       .  S
C391        C392   1.404       .  A
C392        H396   1.083       .  S
C397        C398   1.404       .  A
C397        C402   1.397       .  A
C397        H403   1.083       .  S
C398        C399   1.407       .  A
C399        C400   1.398       .  A
C399        H404   1.083       .  S
C400        C401   1.404       .  A
C400        H405   1.083       .  S
C401        C402   1.408       .  A
C402        H406   1.083       .  S
C407        C408   1.404       .  A
C407        C412   1.397       .  A
C407        H413   1.083       .  S
C408       C1129   1.403   1_545  A
C409        C410   1.399       .  A
C409       C1128   1.403       .  A
C409        H414   1.083       .  S
C410       C1131   1.405       .  A
C410        H415   1.083       .  S
C411        C412   1.402       .  A
C411       C1130   1.405   1_545  A
C412        H416   1.083       .  S
C417        C418   1.402       .  A
C417        C422   1.401       .  A
C417        H423   1.083       .  S
C418       C1859   1.403       .  A
C419        C420   1.397       .  A
C419       C1858   1.402       .  A
C419        H424   1.083       .  S
C420       C1861   1.404       .  A
C420        H425   1.083       .  S
C421        C422   1.406       .  A
C421       C1860   1.402       .  A
C422        H426   1.083       .  S
C427        C432   1.396       .  A
C427       C1868   1.406       .  A
C427        H433   1.083       .  S
C428        C429   1.403       .  A
C428       C1867   1.409       .  A
C429        C430   1.399       .  A
C429        H434   1.083       .  S
C430        C431   1.409       .  A
C430        H435   1.083       .  S
C431       C1872   1.402       .  A
C432       C1871   1.404       .  A
C432        H436   1.083       .  S
C437        C442   1.399       .  A
C437       C1878   1.407       .  A
C437        H443   1.083       .  S
C438        C439   1.403       .  A
C438       C1877   1.409       .  A
C439        C440   1.397       .  A
C439        H444   1.083       .  S
C440        C441   1.408       .  A
C440        H445   1.083       .  S
C441       C1882   1.403       .  A
C442       C1881   1.405       .  A
C442        H446   1.083       .  S
C447        C452   1.399       .  A
C447       C2608   1.402       .  A
C447        H453   1.083       .  S
C448        C449   1.403       .  A
C448       C2607   1.402   1_545  A
C449        C450   1.397       .  A
C449        H454   1.083       .  S
C450        C451   1.403   1_545  A
C450        H455   1.083       .  S
C451       C2612   1.406       .  A
C452       C2611   1.405       .  A
C452        H456   1.083       .  S
C457        C458   1.340       .  D
C457        H459   1.087       .  S
C458        H460   1.087       .  S
C461        C462   1.408       .  A
C461        C466   1.397       .  A
C461        H467   1.083       .  S
C462        C463   1.404       .  A
C463        C464   1.398       .  A
C463        H468   1.083       .  S
C464        C465   1.408       .  A
C464        H469   1.083       .  S
C465        C466   1.403       .  A
C466        H470   1.083       .  S
C471        C472   1.408       .  A
C471        C476   1.398       .  A
C471        H477   1.083       .  S
C472        C473   1.403       .  A
C473        C474   1.397       .  A
C473        H478   1.083       .  S
C474        C475   1.408       .  A
C474        H479   1.083       .  S
C475        C476   1.404       .  A
C476        H480   1.083       .  S
C481        C482   1.341       .  D
C481        H483   1.087       .  S
C482       H1204   1.087       .  S
H484       C1202   1.087       .  S
C485       C1926   1.338       .  D
C485       H1927   1.087       .  S
C486       C1925   1.342   1_655  D
C486       H1928   1.087       .  S
H487       C1925   1.086       .  S
H488       C1926   1.087       .  S
C489        C494   1.398       .  A
C489       C1930   1.410       .  A
C489        H495   1.083       .  S
C490        C491   1.403   1_655  A
C490       C1929   1.408       .  A
C491        C492   1.398       .  A
C491        H496   1.083       .  S
C492        C493   1.408   1_455  A
C492        H497   1.083       .  S
C493       C1934   1.404       .  A
C494       C1933   1.402       .  A
C494        H498   1.083       .  S
C499        C500   1.404   1_455  A
C499        C504   1.398       .  A
C499        H505   1.083       .  S
C500       C1941   1.408       .  A
C501        C502   1.399       .  A
C501       C1940   1.410       .  A
C501        H506   1.083       .  S
C502       C1943   1.402       .  A
C502        H507   1.083       .  S
C503        C504   1.408   1_655  A
C503       C1942   1.404       .  A
C504        H508   1.083       .  S
C509       C1950   1.347   1_655  D
C509       H1231   1.086       .  S
C510       C1949   1.338       .  D
C510        H512   1.086       .  S
H511       C1229   1.086       .  S
C513        C514   1.343       .  D
C513        H515   1.087       .  S
C514        H516   1.087       .  S
C517        C518   1.345   1_545  D
C517        H519   1.086       .  S
C518       H1240   1.087       .  S
H520       C1238   1.087       .  S
C521        C522   1.406       .  A
C521        C526   1.398       .  A
C521        H527   1.083       .  S
C522        C523   1.405       .  A
C523        C524   1.397       .  A
C523        H528   1.083       .  S
C524        C525   1.405       .  A
C524        H529   1.083       .  S
C525        C526   1.405       .  A
C526        H530   1.083       .  S
C531        C532   1.406       .  A
C531        C536   1.398       .  A
C531        H537   1.083       .  S
C532        C533   1.405       .  A
C533        C534   1.397       .  A
C533        H538   1.083       .  S
C534        C535   1.406       .  A
C534        H539   1.083       .  S
C535        C536   1.406       .  A
C536        H540   1.083       .  S
C541        C542   1.344       .  D
C541        H543   1.087       .  S
C542       H1984   1.087       .  S
H544       C1982   1.087       .  S
C545        C546   1.406       .  A
C545        C550   1.394       .  A
C545        H551   1.083       .  S
C546       C1267   1.405       .  A
C547        C548   1.400       .  A
C547       C1266   1.405       .  A
C547        H552   1.083       .  S
C548       C1269   1.407       .  A
C548        H553   1.083       .  S
C549        C550   1.403       .  A
C549       C1268   1.407       .  A
C550        H554   1.083       .  S
C555        C556   1.406       .  A
C555        C560   1.400       .  A
C555        H561   1.083       .  S
C556       C1277   1.405       .  A
C557        C558   1.396       .  A
C557       C1276   1.405       .  A
C557        H562   1.083       .  S
C558       C1279   1.405       .  A
C558        H563   1.083       .  S
C559        C560   1.406       .  A
C559       C1278   1.405       .  A
C560        H564   1.083       .  S
C565        C566   1.343   1_545  D
C565        H567   1.087       .  S
C566       H2728   1.086       .  S
H568       C2726   1.087       .  S
C569        C570   1.343       .  D
C569        H571   1.087       .  S
C570        H572   1.087       .  S
C573        C574   1.341       .  D
C573        H575   1.087       .  S
C574       H1296   1.087       .  S
H576       C1294   1.087       .  S
C577        C578   1.344       .  D
C577        H579   1.087       .  S
C578       H2020   1.087       .  S
H580       C2018   1.087       .  S
C581        C582   1.405       .  A
C581        C586   1.397       .  A
C581        H587   1.083       .  S
C582        C583   1.406       .  A
C583        C584   1.397       .  A
C583        H588   1.083       .  S
C584        C585   1.405       .  A
C584        H589   1.083       .  S
C585        C586   1.406       .  A
C586        H590   1.083       .  S
C591        C592   1.406       .  A
C591        C596   1.397       .  A
C591        H597   1.083       .  S
C592        C593   1.406       .  A
C593        C594   1.399       .  A
C593        H598   1.083       .  S
C594        C595   1.405       .  A
C594        H599   1.083       .  S
C595        C596   1.406       .  A
C596        H600   1.083       .  S
C601        C602   1.341       .  D
C601        H603   1.087       .  S
C602       H2764   1.087       .  S
H604       C2762   1.087       .  S
C605        C606   1.407       .  A
C605        C610   1.398       .  A
C605        H611   1.083       .  S
C606       C1327   1.404       .  A
C607        C608   1.399       .  A
C607       C1326   1.404       .  A
C607        H612   1.083       .  S
C608       C1329   1.408       .  A
C608        H613   1.083       .  S
C609        C610   1.404       .  A
C609       C1328   1.408       .  A
C610        H614   1.083       .  S
C615        C620   1.397       .  A
C615       C1336   1.406       .  A
C615        H621   1.083       .  S
C616        C617   1.405       .  A
C616       C1335   1.406       .  A
C617        C618   1.398       .  A
C617        H622   1.083       .  S
C618        C619   1.407       .  A
C618        H623   1.083       .  S
C619       C1340   1.404       .  A
C620       C1339   1.404       .  A
C620        H624   1.083       .  S
C625        C626   1.347       .  D
C625        H627   1.087       .  S
C626        H628   1.086       .  S
C629        C630   1.404       .  A
C629        C634   1.400       .  A
C629        H635   1.083       .  S
C630        C631   1.402       .  A
C631        C632   1.398       .  A
C631        H636   1.083       .  S
C632        C633   1.404       .  A
C632        H637   1.083       .  S
C633        C634   1.404       .  A
C634        H638   1.083       .  S
C639        C640   1.342       .  D
C639       H1361   1.086       .  S
C640        H642   1.087       .  S
H641       C1359   1.086       .  S
C643        C644   1.406       .  A
C643        C648   1.397       .  A
C643        H649   1.083       .  S
C644        C645   1.405       .  A
C645        C646   1.398       .  A
C645        H650   1.083       .  S
C646        C647   1.406       .  A
C646        H651   1.083       .  S
C647        C648   1.405       .  A
C648        H652   1.083       .  S
C653        C654   1.407       .  A
C653        C658   1.398       .  A
C653        H659   1.083       .  S
C654        C655   1.404       .  A
C655        C656   1.398       .  A
C655        H660   1.083       .  S
C656        C657   1.407       .  A
C656        H661   1.083       .  S
C657        C658   1.404       .  A
C658        H662   1.083       .  S
C663        C668   1.397       .  A
C663       C1384   1.403   1_545  A
C663        H669   1.083       .  S
C664        C760   1.473       .  S
C664        C665   1.405       .  A
C664       C1383   1.403       .  A
C665        C666   1.401       .  A
C665        H670   1.083       .  S
C666        C667   1.403       .  A
C666        H671   1.083       .  S
C667       C1388   1.403       .  A
C668       C1387   1.403   1_545  A
C668        H672   1.083       .  S
C673        C674   1.341   1_455  D
C673        H675   1.087       .  S
C674       H2116   1.087       .  S
H676       C2114   1.087       .  S
C677        C678   1.404       .  A
C677        C682   1.400       .  A
C677        H683   1.083       .  S
C678       C2119   1.404       .  A
C679        C680   1.398       .  A
C679       C2118   1.404   1_455  A
C679        H684   1.083       .  S
C680       C2121   1.403   1_455  A
C680        H685   1.083       .  S
C681        C682   1.404       .  A
C681       C2120   1.403       .  A
C682        H686   1.083       .  S
C687        C688   1.340   1_455  D
C687       H2849   1.087       .  S
C688        H690   1.087       .  S
H689       C2847   1.089       .  S
C691        C696   1.397       .  A
C691       C2132   1.407   1_455  A
C691        H697   1.083       .  S
C692       C1454   1.481       .  S
C692        C693   1.403       .  A
C692       C2131   1.408       .  A
C693        C694   1.399       .  A
C693        H698   1.083       .  S
C694        C695   1.408       .  A
C694        H699   1.083       .  S
C695       C2136   1.403       .  A
C696       C2135   1.404   1_455  A
C696        H700   1.083       .  S
C701        C706   1.399       .  A
C701       C2142   1.408   1_455  A
C701        H707   1.083       .  S
C702       C1453   1.481       .  S
C702        C703   1.403       .  A
C702       C2141   1.408       .  A
C703        C704   1.397       .  A
C703        H708   1.083       .  S
C704        C705   1.408       .  A
C704        H709   1.083       .  S
C705       C2146   1.403       .  A
C706       C2145   1.404       .  A
C706        H710   1.083       .  S
C711        C716   1.397       .  A
C711       C1432   1.403       .  A
C711        H717   1.083       .  S
C712       C1431   1.403       .  A
C712       C2153   1.406       .  A
C713        C714   1.400       .  A
C713       C2152   1.405       .  A
C713        H718   1.083       .  S
C714       C2155   1.403       .  A
C714        H719   1.083       .  S
C715       C2154   1.401       .  A
C715       C1436   1.403       .  A
C716       C1435   1.403       .  A
C716        H720   1.084       .  S
O721       Cu729   2.000       .  S
O721       C2171   1.274       .  A
O722        C732   1.275       .  A
O723       Cu729   2.022       .  S
O723       C2173   1.281       .  A
O724       C2174   1.282       .  A
O725       Cu730   1.994   1_565  S
O725        C734   1.276   1_455  A
O726        C733   1.276   1_455  A
O727       Cu730   2.022       .  S
O727       C2172   1.280       .  A
O728        C731   1.281   1_455  A
Cu729     Cu1450   2.373       .  S
Cu730     Cu1449   2.372   1_455  S
C731       O2161   1.274       .  A
C731       C1408   1.475       .  S
C732       O2167   1.279       .  A
C732       C1435   1.468       .  S
C733       O2163   1.280       .  A
C733       C2862   1.480       .  S
C734       O2164   1.281       .  A
C734       C2852   1.482       .  S
O735       Cu743   2.019       .  S
O735        C745   1.279       .  A
O736       Cu743   2.019       .  S
O736       C2186   1.281       .  A
O737       Cu743   1.987       .  S
O737        C747   1.275       .  A
O738       Cu743   1.996       .  S
O738        C748   1.276       .  A
O739       Cu744   2.018       .  S
O739       C2188   1.280   1_455  A
O740       Cu744   2.024       .  S
O740       C2187   1.281       .  A
O741       Cu744   2.001       .  S
O741        C746   1.275       .  A
O742       Cu744   2.002       .  S
O742       C2185   1.276   1_455  A
Cu743     Cu2184   2.372       .  S
Cu744     Cu2183   2.372   1_455  S
C745       O2182   1.277       .  A
C745       C1398   1.474       .  S
C746       O2176   1.281   1_455  A
C746       C1393   1.476       .  S
C747       O2180   1.282       .  A
C747       C1425   1.481       .  S
C748       O2179   1.281       .  A
C748       C1415   1.481       .  S
O749       Cu757   2.008       .  S
O749        C759   1.279       .  A
O750       Cu757   2.008       .  S
O750        C760   1.278       .  A
O751       Cu757   1.998       .  S
O751        C761   1.277       .  A
O752        C762   1.277       .  A
O753        C762   1.279       .  A
O754       Cu758   2.020       .  S
O754        C761   1.280       .  A
O755       Cu758   2.011       .  S
O755        C760   1.278       .  A
O756       Cu758   2.012       .  S
O756        C759   1.277       .  A
Cu757      Cu758   2.372       .  S
C759       C1359   1.478       .  S
C761       C1377   1.481       .  S
C762       C1364   1.480       .  S
O763       Cu771   2.010       .  S
O763        C773   1.278       .  A
O764       Cu771   2.010       .  S
O764        C774   1.277       .  A
O765       Cu771   2.011       .  S
O765        C775   1.279       .  A
O766       Cu771   2.021       .  S
O766        C776   1.280       .  A
O767       Cu772   1.997       .  S
O767        C776   1.276       .  A
O768       Cu772   2.004       .  S
O768        C775   1.278       .  A
O769       Cu772   2.012       .  S
O769        C774   1.278       .  A
O770       Cu772   2.010       .  S
O770        C773   1.278       .  A
Cu771      Cu772   2.373       .  S
C773       C1345   1.474       .  S
C774       C1350   1.472       .  S
C775       C1367   1.480       .  S
C776       C1374   1.481       .  S
O777      Cu2225   2.012       .  S
O777        C787   1.279   1_565  A
O778       Cu785   2.022       .  S
O778        C788   1.281   1_565  A
O779       Cu785   2.004       .  S
O779        C789   1.277   1_565  A
O780       Cu785   2.002       .  S
O780        C790   1.275       .  A
O781       Cu786   2.013       .  S
O782       Cu786   2.011       .  S
O783       Cu786   1.998       .  S
O784      Cu2226   2.003       .  S
Cu785      O2217   2.013       .  S
Cu786      O2224   1.998       .  S
C787       C1336   1.481       .  S
C788       C1329   1.482       .  S
C789       C1432   1.474       .  S
C790       C1321   1.475       .  S
O791       Cu799   2.009       .  S
O791        C801   1.277       .  A
O792       Cu799   2.008       .  S
O792        C802   1.278       .  A
O793      Cu2239   2.005   1_455  S
O793        C803   1.278       .  A
O794       Cu799   2.011       .  S
O794        C804   1.279       .  A
O795       Cu800   2.002       .  S
O795        C804   1.277       .  A
O796      Cu2240   2.012   1_455  S
O796        C803   1.279       .  A
O797       Cu800   2.014       .  S
O797        C802   1.277       .  A
O798       Cu800   2.014       .  S
O798        C801   1.278       .  A
Cu799      O2233   2.004       .  S
Cu799      Cu800   2.372       .  S
Cu800      O2236   2.012       .  S
C801       C1401   1.472       .  S
C802       C1297   1.477       .  S
C803       C1312   1.481       .  S
C804       C1302   1.480       .  S
O805       Cu813   2.025       .  S
O805        C815   1.281   1_565  A
O806       Cu813   2.023       .  S
O806        C816   1.279       .  A
O807       Cu813   1.996       .  S
O807        C817   1.276   1_565  A
O808       Cu813   2.003       .  S
O808        C818   1.277   1_565  A
O809       Cu814   2.014       .  S
O810       Cu814   2.023       .  S
O811       Cu814   1.997       .  S
O812       Cu814   1.996       .  S
C815       C1293   1.475       .  S
C816       C1387   1.471       .  S
C817       C1326   1.482       .  S
C818       C1339   1.481       .  S
O819       Cu827   2.005       .  S
O819        C829   1.276       .  A
O820       Cu827   2.005       .  S
O820        C830   1.277       .  A
O821       Cu827   2.007       .  S
O821        C831   1.278       .  A
O822       Cu827   2.015       .  S
O822        C832   1.279       .  A
O823       Cu828   2.003       .  S
O823        C832   1.278       .  A
O824       Cu828   2.006       .  S
O824        C831   1.278       .  A
O825       Cu828   2.017       .  S
O825        C830   1.279       .  A
O826       Cu828   2.015       .  S
O826        C829   1.279       .  A
Cu827      Cu828   2.372       .  S
C829       C1289   1.475       .  S
C830       C1353   1.474       .  S
C831       C1305   1.480       .  S
C832       C1315   1.481       .  S
O833       Cu841   1.994       .  S
O834       Cu841   1.996       .  S
O834        C844   1.275       .  A
O835      Cu2281   2.003       .  S
O836       Cu841   2.023       .  S
O837       Cu842   1.991       .  S
O837        C846   1.276   1_565  A
O838      Cu2282   2.014       .  S
O838        C845   1.279   1_565  A
O839       Cu842   2.024       .  S
O840       Cu842   2.022       .  S
O840        C843   1.280   1_565  A
Cu841      O2275   2.023       .  S
Cu842      O2278   1.996       .  S
C843       C1322   1.473       .  S
C844       C1285   1.474       .  S
C845       C1276   1.481       .  S
C846       C1266   1.480       .  S
O847       Cu855   2.015       .  S
O847        C857   1.279       .  A
O848       Cu855   2.014       .  S
O848        C858   1.277       .  A
O849       Cu855   2.007       .  S
O849        C859   1.278       .  A
O850      Cu2295   2.010       .  S
O850        C860   1.279       .  A
O851      Cu2296   2.009       .  S
O851        C860   1.278       .  A
O852       Cu856   2.005       .  S
O852        C859   1.278       .  A
O853       Cu856   2.003       .  S
O853        C858   1.278       .  A
O854       Cu856   2.005       .  S
O854        C857   1.276       .  A
Cu855      O2290   2.006       .  S
Cu855      Cu856   2.373       .  S
Cu856      O2291   2.003       .  S
C857       C1298   1.475       .  S
C858       C1261   1.476       .  S
C859       C1245   1.479       .  S
C860       C1252   1.481       .  S
O861       Cu869   2.014       .  S
O861        C871   1.279   1_565  A
O862       Cu869   2.010       .  S
O862        C872   1.279   1_565  A
O863       Cu869   2.001       .  S
O864       Cu869   2.002       .  S
O864        C874   1.275       .  A
O865       Cu870   2.020       .  S
O866       Cu870   2.020       .  S
O866        C873   1.278       .  A
O867       Cu870   2.003       .  S
O868       Cu870   2.003       .  S
C871       C1279   1.481       .  S
C872       C1269   1.480       .  S
C873       C1237   1.479       .  S
C874       C1294   1.477       .  S
O875       Cu883   2.007       .  S
O875        C885   1.276       .  A
O876       Cu883   2.006       .  S
O876        C886   1.278       .  A
O877       Cu883   2.008       .  S
O877        C887   1.278       .  A
O878       Cu883   2.009       .  S
O878        C888   1.278       .  A
O879       Cu884   2.006       .  S
O879        C888   1.278       .  A
O880       Cu884   2.007       .  S
O880        C887   1.278       .  A
O881       Cu884   2.013       .  S
O881        C886   1.277       .  A
O882       Cu884   2.011       .  S
O882        C885   1.279       .  A
Cu883      Cu884   2.372       .  S
C885       C1290   1.476       .  S
C886       C1234   1.477       .  S
C887       C1242   1.480       .  S
C888       C1255   1.481       .  S
O889        C899   1.281   1_455  A
O890       Cu897   2.023       .  S
O890        C900   1.281   1_455  A
O891       Cu897   1.993       .  S
O891        C901   1.274       .  A
O892       Cu897   1.993   1_556  S
O892        C902   1.276   1_455  A
O893       Cu898   2.048   1_556  S
O893       C2342   1.284       .  A
O894       Cu898   2.048       .  S
O894       C2341   1.285       .  A
O895       Cu898   1.982       .  S
O895       C2340   1.273       .  A
O896       C2339   1.274       .  A
Cu897     Cu2338   2.372   1_455  S
Cu898     Cu2337   2.372       .  S
C899       O2336   1.276       .  A
C899       C1210   1.481       .  S
C900       O2335   1.276       .  A
C900       C1220   1.481       .  S
C901       O2334   1.281   1_455  A
C901       C1407   1.474       .  S
C902       O2333   1.279       .  A
C902       C1229   1.477       .  S
O903       Cu911   1.980   1_556  S
O903       C2353   1.272       .  A
O904       Cu911   1.980       .  S
O904       C2354   1.272       .  A
O905       Cu911   2.036       .  S
O905       C2355   1.283       .  A
O906       Cu911   2.036       .  S
O906       C2356   1.283       .  A
O907       Cu912   1.995       .  S
O907        C916   1.276   1_455  A
O908       Cu912   1.994       .  S
O908        C915   1.276   1_455  A
O909       Cu912   2.026       .  S
O909        C914   1.281   1_455  A
O910       Cu912   2.025   1_556  S
O910        C913   1.280   1_455  A
Cu911     Cu2352   2.372       .  S
Cu912     Cu2351   2.373   1_455  S
C913       O2343   1.274       .  A
C913       C1206   1.472       .  S
C914       O2344   1.274       .  A
C914       C1394   1.475       .  S
C915       O2345   1.281       .  A
C915       C1213   1.481       .  S
C916       O2346   1.281       .  A
C916       C1223   1.481       .  S
O917       Cu925   1.993       .  S
O917        C927   1.274       .  A
O918       Cu925   1.995   1_556  S
O918        C928   1.274       .  A
O919        C929   1.281       .  A
O920       Cu925   2.022       .  S
O920        C930   1.281       .  A
O921       Cu926   1.994       .  S
O921        C930   1.276       .  A
O922        C929   1.276       .  A
O923       Cu926   2.026   1_556  S
O923        C928   1.281       .  A
O924       Cu926   2.025       .  S
O924        C927   1.281       .  A
Cu925      Cu926   2.373       .  S
C927       C1360   1.473       .  S
C928       C1202   1.475       .  S
C929       C1182   1.481       .  S
C930       C1192   1.481       .  S
O931       Cu939   2.025       .  S
O931        C941   1.279       .  A
O932       Cu939   2.025   1_556  S
O932        C942   1.281       .  A
O933       Cu939   1.993       .  S
O933        C943   1.276       .  A
O934       Cu939   1.994       .  S
O934        C944   1.276       .  A
O935       Cu940   2.023       .  S
O935        C944   1.281       .  A
O936       Cu940   2.022       .  S
O936        C943   1.281       .  A
O937       Cu940   1.992   1_556  S
O937        C942   1.274       .  A
O938       Cu940   1.992       .  S
O938        C941   1.276       .  A
Cu939      Cu940   2.372       .  S
C941       C1346   1.478       .  S
C942       C1177   1.474       .  S
C943       C1195   1.481       .  S
C944       C1185   1.481       .  S
O945       Cu953   2.000       .  S
O945        C955   1.274       .  A
O946       Cu953   1.997       .  S
O946        C956   1.275       .  A
O947        C957   1.282       .  A
O948       Cu953   2.025       .  S
O948        C958   1.282       .  A
O949       Cu954   2.007       .  S
O949       C2398   1.278       .  A
O950       C2397   1.277       .  A
O951       Cu954   2.011       .  S
O951       C2396   1.278       .  A
O952       Cu954   2.009       .  S
O952       C2395   1.278       .  A
Cu953     Cu2394   2.372       .  S
Cu954     Cu2393   2.373   1_455  S
C955       O2392   1.282       .  A
C955       C1230   1.480       .  S
C956       O2391   1.280       .  A
C956       C1168   1.470       .  S
C957       O2390   1.274       .  A
C957       C1148   1.481       .  S
C958       O2389   1.275       .  A
C958       C1158   1.482       .  S
O959       Cu967   2.025       .  S
O959        C969   1.282       .  A
O960       Cu967   2.024       .  S
O960        C970   1.280       .  A
O961       Cu967   1.985       .  S
O961        C971   1.274       .  A
O962       Cu967   1.993       .  S
O962        C972   1.275       .  A
O963       Cu968   2.008       .  S
O963       C2412   1.279       .  A
O964       Cu968   2.017       .  S
O964       C2411   1.280       .  A
O965       Cu968   2.011       .  S
O965       C2410   1.278       .  A
O966       Cu968   2.012       .  S
O966       C2409   1.277       .  A
Cu967     Cu2408   2.373       .  S
Cu968     Cu2407   2.372   1_455  S
C969       O2406   1.273       .  A
C969       C1205   1.476       .  S
C970       O2405   1.275       .  A
C970       C1138   1.469       .  S
C971       O2404   1.282       .  A
C971       C1161   1.481       .  S
C972       O2403   1.282       .  A
C972       C1151   1.481       .  S
O973       Cu981   2.022       .  S
O973        C983   1.281       .  A
O974       Cu981   2.019       .  S
O974        C984   1.279       .  A
O975        C985   1.276       .  A
O976       Cu981   1.998       .  S
O976        C986   1.276       .  A
O977       Cu982   2.018       .  S
O977        C986   1.280       .  A
O978        C985   1.281       .  A
O979       Cu982   1.998       .  S
O979        C984   1.276       .  A
O980       Cu982   1.998       .  S
O980        C983   1.275       .  A
Cu981      Cu982   2.373       .  S
C983       C1201   1.476       .  S
C984       C1128   1.472       .  S
C985       C1108   1.481       .  S
C986       C1118   1.481       .  S
O987       Cu995   1.995       .  S
O987        C997   1.274       .  A
O988       Cu995   1.993       .  S
O988        C998   1.275       .  A
O989       Cu995   2.025       .  S
O989        C999   1.281       .  A
O990       Cu995   2.018       .  S
O990       C1000   1.280       .  A
O991       Cu996   1.999       .  S
O991       C1000   1.277       .  A
O992       Cu996   1.991       .  S
O992        C999   1.275       .  A
O993       Cu996   2.023       .  S
O993        C998   1.279       .  A
O994       Cu996   2.021       .  S
O994        C997   1.281       .  A
Cu995      Cu996   2.373       .  S
C997       C1178   1.475       .  S
C998       C1098   1.468       .  S
C999       C1121   1.481       .  S
C1000      C1111   1.481       .  S
O1001     Cu2449   1.991       .  S
O1002     Cu1009   2.026       .  S
O1003     Cu1009   2.012       .  S
O1004     Cu1009   2.011       .  S
O1005     Cu1010   2.007       .  S
O1005      C1014   1.278       .  A
O1006     Cu1010   2.010       .  S
O1006      C1013   1.279       .  A
O1007     Cu1010   1.999       .  S
O1007      C1012   1.277       .  A
O1008     Cu2450   2.018       .  S
O1008      C1011   1.280       .  A
Cu1009     O2441   2.018       .  S
Cu1010     O2448   2.004       .  S
C1011      C1088   1.479       .  S
C1012      C1078   1.484       .  S
C1013      C1286   1.478       .  S
C1014      C1171   1.474       .  S
O1015     Cu1023   2.013       .  S
O1015      C1025   1.279       .  A
O1016     Cu2463   1.998       .  S
O1016      C1026   1.277       .  A
O1017     Cu1023   2.004       .  S
O1017      C1027   1.276       .  A
O1018     Cu1023   2.004       .  S
O1018      C1028   1.277       .  A
O1019     Cu1024   2.012       .  S
O1019      C1028   1.278       .  A
O1020     Cu1024   2.012       .  S
O1020      C1027   1.279       .  A
O1021     Cu2464   2.014       .  S
O1021      C1026   1.279       .  A
O1022     Cu1024   2.004       .  S
O1022      C1025   1.278       .  A
Cu1023     O2456   2.009       .  S
Cu1023    Cu1024   2.373       .  S
Cu1024     O2461   2.015       .  S
C1025      C1061   1.481       .  S
C1026      C1068   1.480       .  S
C1027      C1262   1.473       .  S
C1028      C1141   1.472       .  S
O1029     Cu1037   2.014       .  S
O1029      C1039   1.279       .  A
O1030     Cu1037   2.019       .  S
O1030      C1040   1.279       .  A
O1031     Cu1037   2.010       .  S
O1031      C1041   1.278       .  A
O1032     Cu1037   2.006       .  S
O1032      C1042   1.279       .  A
O1033     Cu1038   2.015       .  S
O1034     Cu1038   2.003       .  S
O1035     Cu1038   2.001       .  S
O1036     Cu1038   2.003       .  S
C1039      C1131   1.471       .  S
C1040      C1238   1.474       .  S
C1041      C1091   1.479       .  S
C1042      C1081   1.483       .  S
O1043     Cu1051   2.000       .  S
O1043      C1053   1.277       .  A
O1044     Cu1051   2.000       .  S
O1044      C1054   1.276       .  A
O1045     Cu1051   2.008       .  S
O1045      C1055   1.279       .  A
O1046     Cu1051   2.013       .  S
O1046      C1056   1.279       .  A
O1047     Cu1052   2.001       .  S
O1047      C1056   1.278       .  A
O1048     Cu1052   2.010       .  S
O1048      C1055   1.278       .  A
O1049     Cu1052   2.018       .  S
O1049      C1054   1.279       .  A
O1050     Cu1052   2.019       .  S
O1050      C1053   1.279       .  A
Cu1051    Cu1052   2.372       .  S
C1053      C1101   1.476       .  S
C1054      C1233   1.474       .  S
C1055      C1071   1.481       .  S
C1056      C1058   1.481       .  S
C1057      C1058   1.406       .  A
C1057      C1062   1.396       .  A
C1057      H1063   1.083       .  S
C1058      C1059   1.406       .  A
C1059      C1060   1.399       .  A
C1059      H1064   1.083       .  S
C1060      C1061   1.406       .  A
C1060      H1065   1.083       .  S
C1061      C1062   1.405       .  A
C1062      H1066   1.083       .  S
C1067      C1068   1.406       .  A
C1067      C1072   1.396       .  A
C1067      H1073   1.083       .  S
C1068      C1069   1.405       .  A
C1069      C1070   1.399       .  A
C1069      H1074   1.083       .  S
C1070      C1071   1.407       .  A
C1070      H1075   1.083       .  S
C1071      C1072   1.405       .  A
C1072      H1076   1.083       .  S
C1077      C1078   1.406       .  A
C1077      C1082   1.402       .  A
C1077      H1083   1.083       .  S
C1079      C1080   1.396       .  A
C1079      H1084   1.083       .  S
C1080      H1085   1.083       .  S
C1081      C1082   1.407       .  A
C1082      H1086   1.083       .  S
C1087      C1092   1.394       .  A
C1087      H1093   1.083       .  S
C1088      C1089   1.405       .  A
C1089      C1090   1.400       .  A
C1089      H1094   1.083       .  S
C1090      C1091   1.407       .  A
C1090      H1095   1.083       .  S
C1092      H1096   1.083       .  S
C1097      C1098   1.402       .  A
C1097      C1102   1.402       .  A
C1097      H1103   1.083       .  S
C1098      C1099   1.402       .  A
C1099      C1100   1.395       .  A
C1099      H1104   1.084       .  S
C1100      C1101   1.404       .  A
C1100      H1105   1.083       .  S
C1101      C1102   1.406       .  A
C1102      H1106   1.083       .  S
C1107      C1108   1.407       .  A
C1107      C1112   1.397       .  A
C1107      H1113   1.083       .  S
C1108      C1109   1.404       .  A
C1109      C1110   1.399       .  A
C1109      H1114   1.083       .  S
C1110      C1111   1.408       .  A
C1110      H1115   1.083       .  S
C1111      C1112   1.404       .  A
C1112      H1116   1.083       .  S
C1117      C1118   1.404       .  A
C1117      C1122   1.397       .  A
C1117      H1123   1.083       .  S
C1118      C1119   1.407       .  A
C1119      C1120   1.398       .  A
C1119      H1124   1.083       .  S
C1120      C1121   1.404       .  A
C1120      H1125   1.083       .  S
C1121      C1122   1.408       .  A
C1122      H1126   1.083       .  S
C1127      C1128   1.404       .  A
C1127      C1132   1.397       .  A
C1127      H1133   1.083       .  S
C1129      C1130   1.399       .  A
C1129      H1134   1.083       .  S
C1130      H1135   1.083       .  S
C1131      C1132   1.402       .  A
C1132      H1136   1.083       .  S
C1137      C1138   1.402       .  A
C1137      C1142   1.401       .  A
C1137      H1143   1.083       .  S
C1138      C2579   1.403       .  A
C1139      C2578   1.402       .  A
C1139      C1140   1.397       .  A
C1139      H1144   1.083       .  S
C1140      C2581   1.404       .  A
C1140      H1145   1.083       .  S
C1141      C2580   1.402       .  A
C1141      C1142   1.405       .  A
C1142      H1146   1.083       .  S
C1147      C2588   1.406       .  A
C1147      C1152   1.396       .  A
C1147      H1153   1.083       .  S
C1148      C2587   1.409       .  A
C1148      C1149   1.403       .  A
C1149      C1150   1.399       .  A
C1149      H1154   1.083       .  S
C1150      C1151   1.409       .  A
C1150      H1155   1.083       .  S
C1151      C2592   1.402       .  A
C1152      C2591   1.405       .  A
C1152      H1156   1.083       .  S
C1157      C2598   1.407       .  A
C1157      C1162   1.399       .  A
C1157      H1163   1.083       .  S
C1158      C2597   1.409       .  A
C1158      C1159   1.403       .  A
C1159      C1160   1.397       .  A
C1159      H1164   1.083       .  S
C1160      C1161   1.408       .  A
C1160      H1165   1.083       .  S
C1161      C2602   1.403       .  A
C1162      C2601   1.405       .  A
C1162      H1166   1.083       .  S
C1167      C1888   1.403       .  A
C1167      C1172   1.400       .  A
C1167      H1173   1.083       .  S
C1168      C1887   1.402       .  A
C1168      C1169   1.403       .  A
C1169      C1170   1.397       .  A
C1169      H1174   1.083       .  S
C1170      C1171   1.403       .  A
C1170      H1175   1.083       .  S
C1171      C1892   1.406       .  A
C1172      C1891   1.404   1_565  A
C1172      H1176   1.083       .  S
C1177      C1178   1.340       .  D
C1177      H1179   1.087       .  S
C1178      H1180   1.087       .  S
C1181      C1182   1.408       .  A
C1181      C1186   1.397       .  A
C1181      H1187   1.083       .  S
C1182      C1183   1.404       .  A
C1183      C1184   1.398       .  A
C1183      H1188   1.083       .  S
C1184      C1185   1.408       .  A
C1184      H1189   1.083       .  S
C1185      C1186   1.403       .  A
C1186      H1190   1.083       .  S
C1191      C1192   1.408       .  A
C1191      C1196   1.398       .  A
C1191      H1197   1.083       .  S
C1192      C1193   1.403       .  A
C1193      C1194   1.397       .  A
C1193      H1198   1.083       .  S
C1194      C1195   1.408       .  A
C1194      H1199   1.083       .  S
C1195      C1196   1.404       .  A
C1196      H1200   1.083       .  S
C1201      C1202   1.341       .  D
C1201      H1203   1.087       .  S
C1205      C2646   1.338       .  D
C1205      H2647   1.087       .  S
C1206      C2645   1.342   1_655  D
C1206      H2648   1.087       .  S
H1207      C2645   1.086       .  S
H1208      C2646   1.087       .  S
C1209      C2650   1.410       .  A
C1209      C1214   1.398       .  A
C1209      H1215   1.083       .  S
C1210      C2649   1.408       .  A
C1210      C1211   1.403   1_655  A
C1211      C1212   1.398       .  A
C1211      H1216   1.083       .  S
C1212      C1213   1.408   1_455  A
C1212      H1217   1.083       .  S
C1213      C2654   1.404       .  A
C1214      C2653   1.402       .  A
C1214      H1218   1.083       .  S
C1219      C1220   1.404   1_455  A
C1219      C1224   1.398       .  A
C1219      H1225   1.083       .  S
C1220      C2661   1.408       .  A
C1221      C2660   1.410       .  A
C1221      C1222   1.399       .  A
C1221      H1226   1.083       .  S
C1222      C2663   1.402       .  A
C1222      H1227   1.083       .  S
C1223      C2662   1.404       .  A
C1223      C1224   1.408   1_655  A
C1224      H1228   1.083       .  S
C1229      C2670   1.346   1_655  D
C1230      C2669   1.339       .  D
C1230      H1232   1.086       .  S
C1233      C1234   1.343       .  D
C1233      H1235   1.087       .  S
C1234      H1236   1.087       .  S
C1237      C1238   1.345       .  D
C1237      H1239   1.086       .  S
C1241      C1242   1.406       .  A
C1241      C1246   1.398       .  A
C1241      H1247   1.083       .  S
C1242      C1243   1.405       .  A
C1243      C1244   1.397       .  A
C1243      H1248   1.083       .  S
C1244      C1245   1.405       .  A
C1244      H1249   1.083       .  S
C1245      C1246   1.405       .  A
C1246      H1250   1.083       .  S
C1251      C1252   1.406       .  A
C1251      C1256   1.398       .  A
C1251      H1257   1.083       .  S
C1252      C1253   1.405       .  A
C1253      C1254   1.397       .  A
C1253      H1258   1.083       .  S
C1254      C1255   1.406       .  A
C1254      H1259   1.083       .  S
C1255      C1256   1.406       .  A
C1256      H1260   1.083       .  S
C1261      C1262   1.344       .  D
C1261      H1263   1.087       .  S
C1262      H2704   1.087       .  S
H1264      C2702   1.087       .  S
C1265      C1266   1.406   1_565  A
C1265      C1270   1.394       .  A
C1265      H1271   1.083       .  S
C1267      C1268   1.400       .  A
C1267      H1272   1.083       .  S
C1268      H1273   1.083       .  S
C1269      C1270   1.403   1_545  A
C1270      H1274   1.083       .  S
C1275      C1276   1.406   1_565  A
C1275      C1280   1.400       .  A
C1275      H1281   1.083       .  S
C1277      C1278   1.396       .  A
C1277      H1282   1.083       .  S
C1278      H1283   1.083       .  S
C1279      C1280   1.406   1_545  A
C1280      H1284   1.083       .  S
C1285      C1286   1.343       .  D
C1285      H1287   1.087       .  S
C1286      H2008   1.086       .  S
H1288      C2006   1.087       .  S
C1289      C1290   1.343       .  D
C1289      H1291   1.087       .  S
C1290      H1292   1.087       .  S
C1293      C1294   1.341   1_545  D
C1293      H1295   1.087       .  S
C1297      C1298   1.344       .  D
C1297      H1299   1.087       .  S
C1298      H2740   1.087       .  S
H1300      C2738   1.087       .  S
C1301      C1302   1.405       .  A
C1301      C1306   1.397       .  A
C1301      H1307   1.083       .  S
C1302      C1303   1.406       .  A
C1303      C1304   1.397       .  A
C1303      H1308   1.083       .  S
C1304      C1305   1.405       .  A
C1304      H1309   1.083       .  S
C1305      C1306   1.406       .  A
C1306      H1310   1.083       .  S
C1311      C1312   1.406       .  A
C1311      C1316   1.397       .  A
C1311      H1317   1.083       .  S
C1312      C1313   1.406       .  A
C1313      C1314   1.399       .  A
C1313      H1318   1.083       .  S
C1314      C1315   1.405       .  A
C1314      H1319   1.083       .  S
C1315      C1316   1.406       .  A
C1316      H1320   1.083       .  S
C1321      C1322   1.341   1_565  D
C1321      H1323   1.087       .  S
C1322      H2044   1.087       .  S
H1324      C2042   1.087       .  S
C1325      C1326   1.407   1_565  A
C1325      C1330   1.398       .  A
C1325      H1331   1.083       .  S
C1327      C1328   1.399       .  A
C1327      H1332   1.083       .  S
C1328      H1333   1.083       .  S
C1329      C1330   1.404   1_545  A
C1330      H1334   1.083       .  S
C1335      C1340   1.397       .  A
C1335      H1341   1.083       .  S
C1336      C1337   1.405   1_545  A
C1337      C1338   1.398       .  A
C1337      H1342   1.083       .  S
C1338      C1339   1.406   1_565  A
C1338      H1343   1.083       .  S
C1340      H1344   1.083       .  S
C1345      C1346   1.347       .  D
C1345      H1347   1.087       .  S
C1346      H1348   1.086       .  S
C1349      C1350   1.404       .  A
C1349      C1354   1.400       .  A
C1349      H1355   1.083       .  S
C1350      C1351   1.402       .  A
C1351      C1352   1.398       .  A
C1351      H1356   1.083       .  S
C1352      C1353   1.404       .  A
C1352      H1357   1.083       .  S
C1353      C1354   1.404       .  A
C1354      H1358   1.083       .  S
C1359      C1360   1.342       .  D
C1360      H1362   1.087       .  S
C1363      C1364   1.406       .  A
C1363      C1368   1.397       .  A
C1363      H1369   1.083       .  S
C1364      C1365   1.405       .  A
C1365      C1366   1.398       .  A
C1365      H1370   1.083       .  S
C1366      C1367   1.406       .  A
C1366      H1371   1.083       .  S
C1367      C1368   1.405       .  A
C1368      H1372   1.083       .  S
C1373      C1374   1.407       .  A
C1373      C1378   1.398       .  A
C1373      H1379   1.083       .  S
C1374      C1375   1.404       .  A
C1375      C1376   1.398       .  A
C1375      H1380   1.083       .  S
C1376      C1377   1.407       .  A
C1376      H1381   1.083       .  S
C1377      C1378   1.404       .  A
C1378      H1382   1.083       .  S
C1383      C1388   1.397       .  A
C1383      H1389   1.083       .  S
C1384      C1385   1.405       .  A
C1385      C1386   1.401       .  A
C1385      H1390   1.083       .  S
C1386      C1387   1.403       .  A
C1386      H1391   1.083       .  S
C1388      H1392   1.083       .  S
C1393      C1394   1.341   1_455  D
C1393      H1395   1.087       .  S
C1394      H2836   1.087       .  S
H1396      C2834   1.087       .  S
C1397      C1398   1.404       .  A
C1397      C1402   1.400       .  A
C1397      H1403   1.083       .  S
C1398      C2839   1.404       .  A
C1399      C2838   1.403   1_455  A
C1399      C1400   1.398       .  A
C1399      H1404   1.083       .  S
C1400      C2841   1.403   1_455  A
C1400      H1405   1.083       .  S
C1401      C2840   1.403       .  A
C1401      C1402   1.404       .  A
C1402      H1406   1.083       .  S
C1407      C1408   1.340   1_455  D
C1407      H2129   1.087       .  S
C1408      H1410   1.087       .  S
H1409      C2127   1.088   1_565  S
C1411      C2852   1.407   1_455  A
C1411      C1416   1.397       .  A
C1411      H1417   1.083       .  S
C1412      C2174   1.481       .  S
C1412      C2851   1.408       .  A
C1412      C1413   1.403       .  A
C1413      C1414   1.399       .  A
C1413      H1418   1.083       .  S
C1414      C1415   1.408       .  A
C1414      H1419   1.083       .  S
C1415      C2856   1.403       .  A
C1416      C2855   1.404   1_455  A
C1416      H1420   1.083       .  S
C1421      C2862   1.408   1_455  A
C1421      C1426   1.399       .  A
C1421      H1427   1.083       .  S
C1422      C2173   1.481       .  S
C1422      C2861   1.408       .  A
C1422      C1423   1.403       .  A
C1423      C1424   1.397       .  A
C1423      H1428   1.083       .  S
C1424      C1425   1.408       .  A
C1424      H1429   1.083       .  S
C1425      C2866   1.403       .  A
C1426      C2865   1.404       .  A
C1426      H1430   1.083       .  S
C1431      C1436   1.397       .  A
C1431      H1437   1.083       .  S
C1432      C2873   1.406   1_545  A
C1433      C2872   1.405   1_565  A
C1433      C1434   1.400       .  A
C1433      H1438   1.083       .  S
C1434      C2875   1.403   1_565  A
C1434      H1439   1.083       .  S
C1435      C2874   1.401   1_545  A
C1436      H1440   1.084       .  S
O1441     Cu1449   1.996       .  S
O1442     Cu2169   1.996       .  S
O1442      C1452   1.276   1_655  A
O1443     Cu1449   2.016       .  S
O1444     Cu2169   2.027       .  S
O1445     Cu1450   1.987       .  S
O1445      C1454   1.275       .  A
O1446     Cu2170   1.995       .  S
O1446      C1453   1.276       .  A
O1447     Cu1450   2.024       .  S
O1448     Cu2170   2.026       .  S
O1448      C1451   1.283       .  A
Cu1449     O2162   1.995       .  S
Cu1449     O2164   2.027   1_545  S
Cu1450     O2166   1.995       .  S
Cu1450     O2168   2.026       .  S
C1451      C2128   1.480       .  S
C1452      C2155   1.473       .  S
O1455     Cu1463   2.020       .  S
O1455      C1465   1.279       .  A
O1456     Cu1463   2.019       .  S
O1457     Cu1463   1.990       .  S
O1457      C1467   1.276   1_655  A
O1458     Cu1463   2.002       .  S
O1458      C1468   1.277       .  A
O1459     Cu1464   2.022       .  S
O1460     Cu1464   2.029       .  S
O1461     Cu1464   2.005       .  S
O1461      C1466   1.275       .  A
O1462     Cu1464   2.004       .  S
C1465      C2118   1.473       .  S
C1466      C2113   1.480       .  S
C1467      C2145   1.480       .  S
C1468      C2135   1.482       .  S
O1469     Cu1477   2.026       .  S
O1469      C1479   1.282       .  A
O1470     Cu1477   2.022       .  S
O1470      C1480   1.280       .  A
O1471     Cu1477   1.989   1_545  S
O1471      C1481   1.275       .  A
O1472     Cu2197   1.993       .  S
O1472      C1482   1.276       .  A
O1473     Cu2198   2.022       .  S
O1473      C1482   1.281       .  A
O1474     Cu1478   2.032   1_545  S
O1474      C1481   1.282       .  A
O1475     Cu1478   1.992       .  S
O1475      C1480   1.275       .  A
O1476     Cu1478   1.992       .  S
O1476      C1479   1.274       .  A
Cu1477     O2192   1.992       .  S
Cu1477    Cu1478   2.373       .  S
Cu1478     O2193   2.022       .  S
C1479      C2079   1.475       .  S
C1480      C2824   1.470       .  S
C1481      C2097   1.482       .  S
C1482      C2084   1.480       .  S
O1483     Cu1491   2.001       .  S
O1483      C1493   1.275       .  A
O1484     Cu1491   1.999       .  S
O1484      C1494   1.276       .  A
O1485     Cu1491   2.021       .  S
O1485      C1495   1.281       .  A
O1486     Cu1491   2.032       .  S
O1486      C1496   1.282       .  A
O1487     Cu1492   1.988       .  S
O1487      C1496   1.275       .  A
O1488     Cu1492   1.994       .  S
O1488      C1495   1.276       .  A
O1489     Cu1492   2.023       .  S
O1489      C1494   1.279       .  A
O1490     Cu1492   2.021       .  S
O1490      C1493   1.281       .  A
Cu1491    Cu1492   2.372       .  S
C1493      C2065   1.477       .  S
C1494      C2070   1.471       .  S
C1495      C2087   1.481       .  S
C1496      C2094   1.483       .  S
O1497      C1507   1.279       .  A
O1498     Cu1505   2.022   1_655  S
O1498      C1508   1.281       .  A
O1499     Cu1505   2.002       .  S
O1499      C1509   1.276       .  A
O1500     Cu1505   2.002       .  S
O1500      C1510   1.276       .  A
O1501     Cu1506   2.021       .  S
O1501      C2230   1.280   1_545  A
O1502     Cu1506   2.018       .  S
O1502      C2229   1.279       .  A
O1503     Cu1506   1.999   1_655  S
O1503      C2228   1.277       .  A
O1504      C2227   1.277   1_545  A
Cu1505    Cu2226   2.372       .  S
Cu1506    Cu2225   2.373   1_545  S
C1507      O2224   1.277       .  A
C1507      C2056   1.478       .  S
C1508      O2223   1.277       .  A
C1508      C2049   1.482       .  S
C1509      O2222   1.279       .  A
C1509      C2152   1.471       .  S
C1510      O2221   1.280       .  A
C1510      C2041   1.476       .  S
O1511     Cu1519   2.013       .  S
O1511      C1521   1.278       .  A
O1512     Cu1519   2.013       .  S
O1512      C1522   1.279       .  A
O1513      C1523   1.278       .  A
O1514     Cu1519   2.010       .  S
O1514      C1524   1.279       .  A
O1515     Cu1520   2.002       .  S
O1515      C1524   1.278       .  A
O1516      C1523   1.279       .  A
O1517     Cu1520   2.011       .  S
O1517      C1522   1.277       .  A
O1518     Cu1520   2.012       .  S
O1518      C1521   1.278       .  A
Cu1519    Cu1520   2.372       .  S
C1521      C2121   1.475       .  S
C1522      C2017   1.477       .  S
C1523      C2032   1.481       .  S
C1524      C2022   1.479       .  S
O1525     Cu1533   2.024       .  S
O1525      C1535   1.281       .  A
O1526     Cu1533   2.021       .  S
O1526      C1536   1.279       .  A
O1527     Cu1533   1.999       .  S
O1527      C1537   1.277       .  A
O1528     Cu1533   2.000       .  S
O1528      C1538   1.277       .  A
O1529     Cu1534   2.011       .  S
O1529      C2258   1.279       .  A
O1530     Cu1534   2.021       .  S
O1530      C2257   1.280       .  A
O1531     Cu1534   1.996       .  S
O1531      C2256   1.276   1_545  A
O1532     Cu1534   1.998       .  S
O1532      C2255   1.275       .  A
Cu1533    Cu2254   2.373       .  S
Cu1534    Cu2253   2.373   1_545  S
C1535      O2252   1.275       .  A
C1535      C2013   1.476       .  S
C1536      O2251   1.276       .  A
C1536      C2107   1.470       .  S
C1537      O2250   1.280       .  A
C1537      C2046   1.482       .  S
C1538      O2249   1.279       .  A
C1538      C2059   1.479       .  S
O1539     Cu1547   2.008       .  S
O1539      C1549   1.277       .  A
O1540     Cu1547   2.008       .  S
O1540      C1550   1.277       .  A
O1541     Cu1547   2.001       .  S
O1541      C1551   1.278       .  A
O1542     Cu1547   2.011       .  S
O1542      C1552   1.279       .  A
O1543     Cu1548   2.006       .  S
O1543      C1552   1.278       .  A
O1544     Cu1548   2.010       .  S
O1544      C1551   1.279       .  A
O1545     Cu1548   2.017       .  S
O1545      C1550   1.279       .  A
O1546     Cu1548   2.016       .  S
O1546      C1549   1.279       .  A
Cu1547    Cu1548   2.372       .  S
C1549      C2009   1.477       .  S
C1550      C2073   1.476       .  S
C1551      C2025   1.479       .  S
C1552      C2035   1.481       .  S
O1553     Cu1561   2.008       .  S
O1553      C2283   1.276       .  A
O1554     Cu1561   2.006       .  S
O1554      C1564   1.279   1_545  A
O1555      C2285   1.281       .  A
O1556     Cu1561   2.003   1_655  S
O1556      C2286   1.278       .  A
O1557     Cu1562   2.014   1_655  S
O1557      C1566   1.279       .  A
O1558      C1565   1.276       .  A
O1559     Cu1562   2.011       .  S
O1559      C2284   1.277       .  A
O1560     Cu1562   2.014       .  S
O1560      C1563   1.279       .  A
Cu1561    Cu2282   2.372   1_545  S
Cu1562    Cu2281   2.372       .  S
C1563      O2273   1.276       .  A
C1563      C2042   1.477       .  S
C1564      O2279   1.277       .  A
C1564      C2005   1.476       .  S
C1565      O2275   1.281       .  A
C1565      C1996   1.482       .  S
C1566      O2276   1.278       .  A
C1566      C1986   1.481       .  S
O1567     Cu1575   2.014   1_655  S
O1567      C1577   1.279       .  A
O1568     Cu1575   2.014       .  S
O1568      C1578   1.277       .  A
O1569     Cu1575   2.011   1_655  S
O1569      C1579   1.279       .  A
O1570      C1580   1.278       .  A
O1571      C1580   1.278       .  A
O1572     Cu1576   2.008   1_655  S
O1572      C1579   1.278       .  A
O1573     Cu1576   2.006       .  S
O1573      C1578   1.278       .  A
O1574     Cu1576   2.010   1_655  S
O1574      C1577   1.277       .  A
Cu1575    Cu1576   2.372       .  S
C1577      C2018   1.477       .  S
C1578      C1981   1.477       .  S
C1579      C1965   1.482       .  S
C1580      C1972   1.478       .  S
O1581     Cu1589   2.015       .  S
O1581      C1591   1.280       .  A
O1582     Cu1589   2.014       .  S
O1582      C1592   1.279       .  A
O1583     Cu1589   2.005       .  S
O1583      C2313   1.278       .  A
O1584     Cu1589   2.004       .  S
O1584      C1594   1.276       .  A
O1585     Cu1590   2.019       .  S
O1585      C2314   1.280   1_545  A
O1586     Cu1590   2.018       .  S
O1586      C1593   1.278       .  A
O1587     Cu1590   2.003       .  S
O1587      C2312   1.278       .  A
O1588     Cu1590   2.005       .  S
O1588      C2311   1.277       .  A
Cu1589    Cu2310   2.372       .  S
Cu1590    Cu2309   2.372   1_545  S
C1591      O2308   1.277       .  A
C1591      C1999   1.482       .  S
C1592      O2307   1.278       .  A
C1592      C1989   1.481       .  S
C1593      O2303   1.278   1_545  A
C1593      C1957   1.479       .  S
C1594      O2305   1.280       .  A
C1594      C2014   1.477       .  S
O1595     Cu1603   2.007       .  S
O1595      C1605   1.276       .  A
O1596     Cu1603   2.004       .  S
O1596      C1606   1.278       .  A
O1597     Cu1603   2.010       .  S
O1597      C1607   1.279       .  A
O1598     Cu1603   2.008       .  S
O1598      C1608   1.279       .  A
O1599     Cu1604   2.003       .  S
O1599      C1608   1.277       .  A
O1600     Cu1604   2.006       .  S
O1600      C1607   1.278       .  A
O1601     Cu1604   2.017       .  S
O1601      C1606   1.278       .  A
O1602     Cu1604   2.017       .  S
O1602      C1605   1.280       .  A
Cu1603    Cu1604   2.372       .  S
C1605      C2010   1.477       .  S
C1606      C1954   1.478       .  S
C1607      C1962   1.481       .  S
C1608      C1975   1.479       .  S
O1609     Cu2337   2.037       .  S
O1609      C1619   1.283       .  A
O1610     Cu1617   2.036       .  S
O1610      C1620   1.283       .  A
O1611     Cu1617   1.977       .  S
O1611      C1621   1.271       .  A
O1612     Cu1617   1.975   1_556  S
O1612      C1622   1.271       .  A
O1613     Cu1618   2.024   1_566  S
O1614     Cu1618   2.025       .  S
O1615     Cu1618   1.994       .  S
O1616     Cu2338   1.994       .  S
Cu1617     O2329   2.037   1_545  S
Cu1618     O2336   1.994   1_545  S
C1619      C1930   1.482       .  S
C1620      C1940   1.482       .  S
C1621      C2127   1.475       .  S
C1622      C1949   1.474       .  S
O1623     Cu1631   1.992   1_556  S
O1624     Cu1631   1.994       .  S
O1625     Cu1631   2.022       .  S
O1626     Cu1631   2.022       .  S
O1627     Cu1632   1.982       .  S
O1627      C1636   1.274       .  A
O1628     Cu1632   1.983       .  S
O1628      C1635   1.274       .  A
O1629     Cu1632   2.041       .  S
O1629      C1634   1.283       .  A
O1630     Cu1632   2.039   1_556  S
O1630      C1633   1.283       .  A
C1633      C1926   1.473       .  S
C1634      C2114   1.474       .  S
C1635      C1933   1.482       .  S
C1636      C1943   1.482       .  S
O1637     Cu1645   1.996   1_545  S
O1637      C1647   1.274       .  A
O1638     Cu1645   1.995   1_556  S
O1638      C1648   1.275       .  A
O1639     Cu2365   2.021       .  S
O1639      C1649   1.281       .  A
O1640     Cu1645   2.021   1_545  S
O1640      C1650   1.281       .  A
O1641     Cu1646   1.994   1_545  S
O1641      C1650   1.276       .  A
O1642     Cu2366   1.996       .  S
O1642      C1649   1.276       .  A
O1643     Cu1646   2.028   1_556  S
O1643      C1648   1.281       .  A
O1644     Cu1646   2.025       .  S
O1644      C1647   1.281   1_565  A
Cu1645     O2359   2.021       .  S
Cu1645    Cu1646   2.372       .  S
Cu1646     O2362   1.995       .  S
C1647      C2080   1.476   1_545  S
C1648      C1922   1.475       .  S
C1649      C1902   1.481       .  S
C1650      C1912   1.481       .  S
O1651     Cu1659   2.029       .  S
O1651      C1661   1.282       .  A
O1652     Cu1659   2.025   1_556  S
O1652      C1662   1.280       .  A
O1653     Cu1659   1.994       .  S
O1653      C1663   1.276       .  A
O1654     Cu1659   1.996       .  S
O1654      C1664   1.276       .  A
O1655     Cu1660   2.021       .  S
O1655      C1664   1.281       .  A
O1656     Cu1660   2.021       .  S
O1656      C1663   1.281       .  A
O1657     Cu1660   1.990   1_556  S
O1657      C1662   1.275       .  A
O1658     Cu1660   1.990       .  S
O1658      C1661   1.274       .  A
Cu1659    Cu1660   2.372       .  S
C1661      C2066   1.474       .  S
C1662      C1897   1.476       .  S
C1663      C1915   1.480       .  S
C1664      C1905   1.481       .  S
O1665     Cu1673   2.007       .  S
O1665      C1675   1.277   1_655  A
O1666     Cu1673   2.006       .  S
O1666      C1676   1.277   1_655  A
O1667     Cu2393   2.019       .  S
O1667      C1677   1.280   1_655  A
O1668     Cu1673   2.008   1_545  S
O1668      C1678   1.279   1_655  A
O1669     Cu1674   1.993       .  S
O1670     Cu2394   1.984       .  S
O1671     Cu1674   2.024   1_565  S
O1672     Cu1674   2.024       .  S
Cu1673     O2387   2.019       .  S
Cu1674     O2390   1.984   1_545  S
C1675      C1950   1.473       .  S
C1676      C1888   1.469       .  S
C1677      C1868   1.481       .  S
C1678      C1878   1.480       .  S
O1679     Cu1687   2.006       .  S
O1679      C1689   1.279   1_655  A
O1680     Cu1687   2.010       .  S
O1680      C1690   1.277   1_655  A
O1681     Cu1687   1.999       .  S
O1681      C1691   1.277   1_655  A
O1682     Cu1687   2.007       .  S
O1682      C1692   1.278   1_655  A
O1683     Cu1688   2.025       .  S
O1684     Cu1688   2.032       .  S
O1685     Cu1688   1.991       .  S
O1686     Cu1688   1.994       .  S
C1689      C1925   1.477       .  S
C1690      C1858   1.470       .  S
C1691      C1881   1.481       .  S
C1692      C1871   1.481       .  S
O1693     Cu1701   2.006       .  S
O1693      C1703   1.279       .  A
O1694     Cu1701   2.007       .  S
O1694      C1704   1.277       .  A
O1695     Cu2421   2.000       .  S
O1695      C1705   1.277       .  A
O1696     Cu1701   2.009       .  S
O1696      C1706   1.278       .  A
O1697     Cu1702   2.007       .  S
O1697      C1706   1.278       .  A
O1698     Cu2422   2.015       .  S
O1698      C1705   1.279       .  A
O1699     Cu1702   2.016       .  S
O1699      C1704   1.278       .  A
O1700     Cu1702   2.018       .  S
O1700      C1703   1.278       .  A
Cu1701     O2415   2.000   1_545  S
Cu1701    Cu1702   2.372       .  S
Cu1702     O2418   2.014   1_545  S
C1703      C1921   1.480       .  S
C1704      C1848   1.473       .  S
C1705      C1828   1.480       .  S
C1706      C1838   1.481       .  S
O1707     Cu1715   2.002       .  S
O1707      C1717   1.277       .  A
O1708     Cu1715   2.002       .  S
O1708      C1718   1.277       .  A
O1709     Cu1715   2.016       .  S
O1709      C1719   1.280       .  A
O1710     Cu1715   2.007       .  S
O1710      C1720   1.279       .  A
O1711     Cu1716   2.007       .  S
O1711      C1720   1.278       .  A
O1712     Cu1716   2.000       .  S
O1712      C1719   1.277       .  A
O1713     Cu1716   2.012       .  S
O1713      C1718   1.278       .  A
O1714     Cu1716   2.012       .  S
O1714      C1717   1.278       .  A
Cu1715    Cu1716   2.373       .  S
C1717      C1898   1.473       .  S
C1718      C1818   1.469       .  S
C1719      C1841   1.481       .  S
C1720      C1831   1.480       .  S
O1721      C2451   1.280       .  A
O1722     Cu1729   2.001   1_655  S
O1722      C2452   1.277       .  A
O1723     Cu1729   2.017   1_655  S
O1723      C2453   1.279       .  A
O1724     Cu1729   2.013       .  S
O1724      C2454   1.279       .  A
O1725     Cu1730   2.002       .  S
O1725      C1734   1.277       .  A
O1726     Cu1730   1.999       .  S
O1726      C1733   1.276   1_455  A
O1727     Cu1730   2.011   1_655  S
O1727      C1732   1.279       .  A
O1728      C1731   1.278   1_545  A
Cu1729    Cu2450   2.373       .  S
Cu1730    Cu2449   2.373   1_545  S
C1731      O2441   1.280       .  A
C1731      C1808   1.483       .  S
C1732      O2442   1.277   1_545  A
C1732      C1798   1.479       .  S
C1733      O2443   1.279   1_545  A
C1733      C2006   1.473       .  S
C1734      O2444   1.279   1_545  A
C1734      C1891   1.473       .  S
O1735     Cu1743   2.005   1_655  S
O1735      C1745   1.278       .  A
O1736      C1746   1.278       .  A
O1737     Cu1743   2.006       .  S
O1737      C1747   1.277       .  A
O1738     Cu1743   2.008       .  S
O1738      C1748   1.278       .  A
O1739     Cu1744   2.014       .  S
O1739      C1748   1.278       .  A
O1740     Cu1744   2.013       .  S
O1740      C1747   1.279       .  A
O1741      C1746   1.279       .  A
O1742     Cu1744   2.004   1_655  S
O1742      C1745   1.278       .  A
Cu1743    Cu1744   2.373       .  S
C1745      C1781   1.478       .  S
C1746      C1788   1.483       .  S
C1747      C1982   1.475       .  S
C1748      C1861   1.475       .  S
O1749     Cu1757   2.019       .  S
O1749      C1759   1.279       .  A
O1750     Cu1757   2.022       .  S
O1750      C1760   1.280   1_545  A
O1751     Cu1757   2.015       .  S
O1751      C1761   1.279   1_545  A
O1752     Cu1757   2.003       .  S
O1752      C1762   1.278       .  A
O1753     Cu1758   2.013       .  S
O1753      C2482   1.279       .  A
O1754     Cu1758   2.008       .  S
O1754      C2481   1.278       .  A
O1755     Cu1758   2.001       .  S
O1755      C2480   1.276       .  A
O1756     Cu1758   2.002       .  S
O1756      C2479   1.276       .  A
Cu1757    Cu2478   2.372   1_545  S
Cu1758    Cu2477   2.372       .  S
C1759      O2476   1.276   1_545  A
C1759      C1851   1.472       .  S
C1760      O2475   1.276       .  A
C1760      C1958   1.475       .  S
C1761      O2474   1.278       .  A
C1761      C1811   1.483       .  S
C1762      O2473   1.279   1_545  A
C1762      C1801   1.480       .  S
O1763     Cu1771   2.005       .  S
O1763      C1773   1.277       .  A
O1764     Cu1771   2.005       .  S
O1764      C1774   1.277       .  A
O1765     Cu1771   2.005       .  S
O1765      C1775   1.278       .  A
O1766     Cu1771   2.009       .  S
O1766      C1776   1.278       .  A
O1767     Cu1772   2.001       .  S
O1767      C1776   1.278       .  A
O1768     Cu1772   2.014       .  S
O1768      C1775   1.279       .  A
O1769     Cu1772   2.015       .  S
O1769      C1774   1.279       .  A
O1770     Cu1772   2.012       .  S
O1770      C1773   1.278       .  A
Cu1771    Cu1772   2.373       .  S
C1773      C1821   1.471       .  S
C1774      C1953   1.475       .  S
C1775      C1791   1.483       .  S
C1776      C1778   1.478       .  S
C1777      C1778   1.405       .  A
C1777      C1782   1.395       .  A
C1777      H1783   1.083       .  S
C1778      C1779   1.405       .  A
C1779      C1780   1.398       .  A
C1779      H1784   1.083       .  S
C1780      C1781   1.406       .  A
C1780      H1785   1.083       .  S
C1781      C1782   1.405       .  A
C1782      H1786   1.083       .  S
C1787      C1788   1.406       .  A
C1787      C1792   1.398       .  A
C1787      H1793   1.083       .  S
C1788      C1789   1.406       .  A
C1789      C1790   1.399       .  A
C1789      H1794   1.083       .  S
C1790      C1791   1.406       .  A
C1790      H1795   1.083       .  S
C1791      C1792   1.406       .  A
C1792      H1796   1.083       .  S
C1797      C1798   1.404       .  A
C1797      C1802   1.397       .  A
C1797      H1803   1.083       .  S
C1798      C2519   1.406   1_545  A
C1799      C2518   1.406       .  A
C1799      C1800   1.397       .  A
C1799      H1804   1.083       .  S
C1800      C2521   1.405       .  A
C1800      H1805   1.083       .  S
C1801      C2520   1.405   1_545  A
C1801      C1802   1.406       .  A
C1802      H1806   1.083       .  S
C1807      C2528   1.407       .  A
C1807      C1812   1.398       .  A
C1807      H1813   1.083       .  S
C1808      C2527   1.407   1_565  A
C1808      C1809   1.405       .  A
C1809      C1810   1.399       .  A
C1809      H1814   1.083       .  S
C1810      C1811   1.407       .  A
C1810      H1815   1.083       .  S
C1811      C2532   1.405   1_565  A
C1812      C2531   1.405       .  A
C1812      H1816   1.083       .  S
C1817      C1818   1.403       .  A
C1817      C1822   1.399       .  A
C1817      H1823   1.083       .  S
C1818      C1819   1.403       .  A
C1819      C1820   1.397       .  A
C1819      H1824   1.083       .  S
C1820      C1821   1.403       .  A
C1820      H1825   1.083       .  S
C1821      C1822   1.404       .  A
C1822      H1826   1.083       .  S
C1827      C1828   1.406       .  A
C1827      C1832   1.396       .  A
C1827      H1833   1.083       .  S
C1828      C1829   1.405       .  A
C1829      C1830   1.399       .  A
C1829      H1834   1.083       .  S
C1830      C1831   1.406       .  A
C1830      H1835   1.083       .  S
C1831      C1832   1.405       .  A
C1832      H1836   1.083       .  S
C1837      C1838   1.405       .  A
C1837      C1842   1.397       .  A
C1837      H1843   1.083       .  S
C1838      C1839   1.406       .  A
C1839      C1840   1.399       .  A
C1839      H1844   1.083       .  S
C1840      C1841   1.405       .  A
C1840      H1845   1.083       .  S
C1841      C1842   1.406       .  A
C1842      H1846   1.083       .  S
C1847      C1848   1.404       .  A
C1847      C1852   1.400       .  A
C1847      H1853   1.083       .  S
C1848      C2569   1.404   1_545  A
C1849      C2568   1.404       .  A
C1849      C1850   1.398       .  A
C1849      H1854   1.083       .  S
C1850      C2571   1.403       .  A
C1850      H1855   1.083       .  S
C1851      C2570   1.403   1_545  A
C1851      C1852   1.404       .  A
C1852      H1856   1.083       .  S
C1857      C1858   1.403   1_655  A
C1857      C1862   1.401       .  A
C1857      H1863   1.083       .  S
C1859      C1860   1.395       .  A
C1859      H1864   1.084       .  S
C1860      H1865   1.083       .  S
C1861      C1862   1.405   1_455  A
C1862      H1866   1.083       .  S
C1867      C1872   1.397       .  A
C1867      H1873   1.083       .  S
C1868      C1869   1.405   1_455  A
C1869      C1870   1.399       .  A
C1869      H1874   1.083       .  S
C1870      C1871   1.407   1_655  A
C1870      H1875   1.083       .  S
C1872      H1876   1.083       .  S
C1877      C1882   1.399       .  A
C1877      H1883   1.083       .  S
C1878      C1879   1.404   1_455  A
C1879      C1880   1.396       .  A
C1879      H1884   1.083       .  S
C1880      C1881   1.406   1_655  A
C1880      H1885   1.083       .  S
C1882      H1886   1.083       .  S
C1887      C1892   1.401       .  A
C1887      H1893   1.083       .  S
C1888      C1889   1.402   1_465  A
C1889      C1890   1.397       .  A
C1889      H1894   1.083       .  S
C1890      C1891   1.404   1_655  A
C1890      H1895   1.083       .  S
C1892      H1896   1.083       .  S
C1897      C1898   1.347       .  D
C1897      H1899   1.086       .  S
C1898      H1900   1.087       .  S
C1901      C1902   1.408       .  A
C1901      C1906   1.398       .  A
C1901      H1907   1.083       .  S
C1902      C1903   1.404       .  A
C1903      C1904   1.398       .  A
C1903      H1908   1.083       .  S
C1904      C1905   1.408       .  A
C1904      H1909   1.083       .  S
C1905      C1906   1.404       .  A
C1906      H1910   1.083       .  S
C1911      C1912   1.408       .  A
C1911      C1916   1.398       .  A
C1911      H1917   1.083       .  S
C1912      C1913   1.404       .  A
C1913      C1914   1.398       .  A
C1913      H1918   1.083       .  S
C1914      C1915   1.408       .  A
C1914      H1919   1.083       .  S
C1915      C1916   1.403       .  A
C1916      H1920   1.083       .  S
C1921      C1922   1.344   1_545  D
C1921      H1923   1.086       .  S
C1922      H2644   1.087       .  S
H1924      C2642   1.087       .  S
C1929      C1934   1.398       .  A
C1929      H1935   1.083       .  S
C1930      C1931   1.402       .  A
C1931      C1932   1.398       .  A
C1931      H1936   1.083       .  S
C1932      C1933   1.410       .  A
C1932      H1937   1.083       .  S
C1934      H1938   1.083       .  S
C1939      C1940   1.401       .  A
C1939      C1944   1.398       .  A
C1939      H1945   1.083       .  S
C1941      C1942   1.398       .  A
C1941      H1946   1.083       .  S
C1942      H1947   1.083       .  S
C1943      C1944   1.410       .  A
C1944      H1948   1.083       .  S
C1949      H2671   1.087       .  S
C1950      H1952   1.087       .  S
H1951      C2669   1.087       .  S
C1953      C1954   1.345       .  D
C1953      H1955   1.087       .  S
C1954      H1956   1.086       .  S
C1957      C1958   1.344   1_545  D
C1957      H1959   1.086       .  S
C1958      H2680   1.087       .  S
H1960      C2678   1.087       .  S
C1961      C1962   1.406       .  A
C1961      C1966   1.398       .  A
C1961      H1967   1.083       .  S
C1962      C1963   1.405       .  A
C1963      C1964   1.398       .  A
C1963      H1968   1.083       .  S
C1964      C1965   1.406       .  A
C1964      H1969   1.083       .  S
C1965      C1966   1.406       .  A
C1966      H1970   1.083       .  S
C1971      C1972   1.405       .  A
C1971      C1976   1.397       .  A
C1971      H1977   1.083       .  S
C1972      C1973   1.405       .  A
C1973      C1974   1.397       .  A
C1973      H1978   1.083       .  S
C1974      C1975   1.406       .  A
C1974      H1979   1.083       .  S
C1975      C1976   1.405       .  A
C1976      H1980   1.083       .  S
C1981      C1982   1.345       .  D
C1981      H1983   1.087       .  S
C1985      C1986   1.406       .  A
C1985      C1990   1.400       .  A
C1985      H1991   1.083       .  S
C1986      C2707   1.405       .  A
C1987      C2706   1.405       .  A
C1987      C1988   1.396       .  A
C1987      H1992   1.083       .  S
C1988      C2709   1.405       .  A
C1988      H1993   1.083       .  S
C1989      C2708   1.405       .  A
C1989      C1990   1.406       .  A
C1990      H1994   1.083       .  S
C1995      C1996   1.407       .  A
C1995      C2000   1.397       .  A
C1995      H2001   1.083       .  S
C1996      C2717   1.405       .  A
C1997      C2716   1.405       .  A
C1997      C1998   1.399       .  A
C1997      H2002   1.083       .  S
C1998      C2719   1.407       .  A
C1998      H2003   1.083       .  S
C1999      C2718   1.407       .  A
C1999      C2000   1.404       .  A
C2000      H2004   1.083       .  S
C2005      C2006   1.343   1_465  D
C2005      H2007   1.087       .  S
C2009      C2010   1.344       .  D
C2009      H2011   1.087       .  S
C2010      H2012   1.087       .  S
C2013      C2014   1.342       .  D
C2013      H2015   1.087       .  S
C2014      H2736   1.087       .  S
H2016      C2734   1.087       .  S
C2017      C2018   1.345       .  D
C2017      H2019   1.087       .  S
C2021      C2022   1.406       .  A
C2021      C2026   1.398       .  A
C2021      H2027   1.083       .  S
C2022      C2023   1.405       .  A
C2023      C2024   1.396       .  A
C2023      H2028   1.083       .  S
C2024      C2025   1.405       .  A
C2024      H2029   1.083       .  S
C2025      C2026   1.405       .  A
C2026      H2030   1.083       .  S
C2031      C2032   1.406       .  A
C2031      C2036   1.397       .  A
C2031      H2037   1.083       .  S
C2032      C2033   1.406       .  A
C2033      C2034   1.398       .  A
C2033      H2038   1.083       .  S
C2034      C2035   1.406       .  A
C2034      H2039   1.083       .  S
C2035      C2036   1.405       .  A
C2036      H2040   1.083       .  S
C2041      C2042   1.343       .  D
C2041      H2043   1.087       .  S
C2045      C2046   1.407       .  A
C2045      C2050   1.398       .  A
C2045      H2051   1.083       .  S
C2046      C2767   1.404       .  A
C2047      C2766   1.404       .  A
C2047      C2048   1.398       .  A
C2047      H2052   1.083       .  S
C2048      C2769   1.407       .  A
C2048      H2053   1.083       .  S
C2049      C2768   1.407       .  A
C2049      C2050   1.404       .  A
C2050      H2054   1.083       .  S
C2055      C2776   1.406       .  A
C2055      C2060   1.396       .  A
C2055      H2061   1.083       .  S
C2056      C2775   1.406       .  A
C2056      C2057   1.404       .  A
C2057      C2058   1.398       .  A
C2057      H2062   1.083       .  S
C2058      C2059   1.407       .  A
C2058      H2063   1.083       .  S
C2059      C2780   1.404       .  A
C2060      C2779   1.404       .  A
C2060      H2064   1.083       .  S
C2065      C2066   1.340       .  D
C2065      H2067   1.087       .  S
C2066      H2068   1.087       .  S
C2069      C2070   1.404       .  A
C2069      C2074   1.399       .  A
C2069      H2075   1.083       .  S
C2070      C2071   1.402       .  A
C2071      C2072   1.400       .  A
C2071      H2076   1.083       .  S
C2072      C2073   1.406       .  A
C2072      H2077   1.083       .  S
C2073      C2074   1.404       .  A
C2074      H2078   1.083       .  S
C2079      C2080   1.340       .  D
C2079      H2801   1.087       .  S
C2080      H2082   1.087       .  S
H2081      C2799   1.087       .  S
C2083      C2084   1.408       .  A
C2083      C2088   1.397       .  A
C2083      H2089   1.083       .  S
C2084      C2085   1.403       .  A
C2085      C2086   1.398       .  A
C2085      H2090   1.083       .  S
C2086      C2087   1.408       .  A
C2086      H2091   1.083       .  S
C2087      C2088   1.403       .  A
C2088      H2092   1.083       .  S
C2093      C2094   1.409       .  A
C2093      C2098   1.398       .  A
C2093      H2099   1.083       .  S
C2094      C2095   1.403       .  A
C2095      C2096   1.399       .  A
C2095      H2100   1.083       .  S
C2096      C2097   1.409       .  A
C2096      H2101   1.083       .  S
C2097      C2098   1.402       .  A
C2098      H2102   1.083       .  S
C2103      C2824   1.401   1_545  A
C2103      C2108   1.397       .  A
C2103      H2109   1.083       .  S
C2104      C2200   1.470       .  S
C2104      C2823   1.401       .  A
C2104      C2105   1.406       .  A
C2105      C2106   1.399       .  A
C2105      H2110   1.083       .  S
C2106      C2107   1.402       .  A
C2106      H2111   1.083       .  S
C2107      C2828   1.405       .  A
C2108      C2827   1.405   1_545  A
C2108      H2112   1.083       .  S
C2113      C2114   1.340       .  D
C2113      H2115   1.086       .  S
C2117      C2118   1.403       .  A
C2117      C2122   1.400       .  A
C2117      H2123   1.083       .  S
C2119      C2120   1.398       .  A
C2119      H2124   1.083       .  S
C2120      H2125   1.083       .  S
C2121      C2122   1.405       .  A
C2122      H2126   1.083       .  S
C2127      C2128   1.339       .  D
C2128      H2130   1.087       .  S
C2131      C2136   1.397       .  A
C2131      H2137   1.083       .  S
C2132      C2133   1.404       .  A
C2133      C2134   1.400       .  A
C2133      H2138   1.083       .  S
C2134      C2135   1.408       .  A
C2134      H2139   1.083       .  S
C2136      H2140   1.083       .  S
C2141      C2146   1.399       .  A
C2141      H2147   1.083       .  S
C2142      C2143   1.403       .  A
C2143      C2144   1.396       .  A
C2143      H2148   1.083       .  S
C2144      C2145   1.407   1_655  A
C2144      H2149   1.083       .  S
C2146      H2150   1.083       .  S
C2151      C2872   1.401   1_655  A
C2151      C2156   1.398       .  A
C2151      H2157   1.083       .  S
C2152      C2871   1.401   1_455  A
C2153      C2154   1.400       .  A
C2153      H2158   1.083       .  S
C2154      H2159   1.083       .  S
C2155      C2876   1.405   1_455  A
C2156      C2875   1.405   1_655  A
C2156      H2160   1.083       .  S
O2161     Cu2169   1.996       .  S
O2162      C2172   1.276   1_655  A
O2163     Cu2169   2.016       .  S
O2165     Cu2170   1.987   1_565  S
O2165      C2174   1.275       .  A
O2166      C2173   1.276       .  A
O2167     Cu2170   2.024       .  S
O2168      C2171   1.283       .  A
C2171      C2848   1.480       .  S
C2172      C2875   1.473       .  S
O2175     Cu2183   2.020       .  S
O2175      C2185   1.279       .  A
O2176     Cu2183   2.019       .  S
O2177     Cu2183   1.990       .  S
O2177      C2187   1.276   1_655  A
O2178     Cu2183   2.002       .  S
O2178      C2188   1.277       .  A
O2179     Cu2184   2.022       .  S
O2180     Cu2184   2.029       .  S
O2181     Cu2184   2.005       .  S
O2181      C2186   1.275       .  A
O2182     Cu2184   2.004       .  S
C2185      C2838   1.472       .  S
C2186      C2833   1.480       .  S
C2187      C2865   1.480       .  S
C2188      C2855   1.482       .  S
O2189     Cu2197   2.026       .  S
O2189      C2199   1.281       .  A
O2190     Cu2197   2.022       .  S
O2190      C2200   1.280       .  A
O2191     Cu2197   1.990       .  S
O2191      C2201   1.275       .  A
O2192      C2202   1.276       .  A
O2193      C2202   1.281       .  A
O2194     Cu2198   2.031       .  S
O2194      C2201   1.282       .  A
O2195     Cu2198   1.992       .  S
O2195      C2200   1.275       .  A
O2196     Cu2198   1.992       .  S
O2196      C2199   1.274       .  A
Cu2197    Cu2198   2.373       .  S
C2199      C2799   1.475       .  S
C2201      C2817   1.482       .  S
C2202      C2804   1.480       .  S
O2203     Cu2211   2.001       .  S
O2203      C2213   1.275       .  A
O2204     Cu2211   1.999       .  S
O2204      C2214   1.276       .  A
O2205     Cu2211   2.021       .  S
O2205      C2215   1.281       .  A
O2206     Cu2211   2.032       .  S
O2206      C2216   1.282       .  A
O2207     Cu2212   1.988       .  S
O2207      C2216   1.275       .  A
O2208     Cu2212   1.994       .  S
O2208      C2215   1.276       .  A
O2209     Cu2212   2.023       .  S
O2209      C2214   1.279       .  A
O2210     Cu2212   2.022       .  S
O2210      C2213   1.281       .  A
Cu2211    Cu2212   2.372       .  S
C2213      C2785   1.477       .  S
C2214      C2790   1.471       .  S
C2215      C2807   1.481       .  S
C2216      C2814   1.483       .  S
O2217      C2227   1.279       .  A
O2218     Cu2225   2.022   1_655  S
O2218      C2228   1.281   1_565  A
O2219     Cu2225   2.001       .  S
O2219      C2229   1.276   1_565  A
O2220     Cu2225   2.002       .  S
O2220      C2230   1.276       .  A
O2221     Cu2226   2.021       .  S
O2222     Cu2226   2.018       .  S
O2223     Cu2226   1.999   1_655  S
C2227      C2776   1.478   1_565  S
C2228      C2769   1.482       .  S
C2229      C2872   1.471       .  S
C2230      C2761   1.476       .  S
O2231     Cu2239   2.012       .  S
O2231      C2241   1.278       .  A
O2232     Cu2239   2.013       .  S
O2232      C2242   1.279       .  A
O2233      C2243   1.278       .  A
O2234     Cu2239   2.010       .  S
O2234      C2244   1.278       .  A
O2235     Cu2240   2.002       .  S
O2235      C2244   1.278       .  A
O2236      C2243   1.279       .  A
O2237     Cu2240   2.011       .  S
O2237      C2242   1.277       .  A
O2238     Cu2240   2.012       .  S
O2238      C2241   1.278       .  A
Cu2239    Cu2240   2.372       .  S
C2241      C2841   1.475       .  S
C2242      C2737   1.477       .  S
C2243      C2752   1.481       .  S
C2244      C2742   1.479       .  S
O2245     Cu2253   2.024       .  S
O2245      C2255   1.281   1_565  A
O2246     Cu2253   2.021       .  S
O2246      C2256   1.279       .  A
O2247     Cu2253   1.999       .  S
O2247      C2257   1.277   1_565  A
O2248     Cu2253   2.001       .  S
O2248      C2258   1.277   1_565  A
O2249     Cu2254   2.011       .  S
O2250     Cu2254   2.021       .  S
O2251     Cu2254   1.995       .  S
O2252     Cu2254   1.998       .  S
C2255      C2733   1.476       .  S
C2256      C2827   1.470       .  S
C2257      C2766   1.482       .  S
C2258      C2779   1.479       .  S
O2259     Cu2267   2.008       .  S
O2259      C2269   1.277       .  A
O2260     Cu2267   2.008       .  S
O2260      C2270   1.277       .  A
O2261     Cu2267   2.001       .  S
O2261      C2271   1.278       .  A
O2262     Cu2267   2.011       .  S
O2262      C2272   1.279       .  A
O2263     Cu2268   2.007       .  S
O2263      C2272   1.278       .  A
O2264     Cu2268   2.010       .  S
O2264      C2271   1.279       .  A
O2265     Cu2268   2.017       .  S
O2265      C2270   1.279       .  A
O2266     Cu2268   2.016       .  S
O2266      C2269   1.279       .  A
Cu2267    Cu2268   2.372       .  S
C2269      C2729   1.477       .  S
C2270      C2793   1.476       .  S
C2271      C2745   1.479       .  S
C2272      C2755   1.481       .  S
O2273     Cu2281   2.008       .  S
O2274     Cu2281   2.006       .  S
O2274      C2284   1.278       .  A
O2276     Cu2281   2.003   1_655  S
O2277     Cu2282   2.014   1_655  S
O2277      C2286   1.279   1_565  A
O2278      C2285   1.276   1_565  A
O2279     Cu2282   2.011       .  S
O2280     Cu2282   2.014       .  S
O2280      C2283   1.279   1_565  A
C2283      C2762   1.477       .  S
C2284      C2725   1.476       .  S
C2285      C2716   1.482       .  S
C2286      C2706   1.481       .  S
O2287     Cu2295   2.014   1_655  S
O2287      C2297   1.279       .  A
O2288     Cu2295   2.014       .  S
O2288      C2298   1.277       .  A
O2289     Cu2295   2.011   1_655  S
O2289      C2299   1.279       .  A
O2290      C2300   1.278       .  A
O2291      C2300   1.278       .  A
O2292     Cu2296   2.008   1_655  S
O2292      C2299   1.278       .  A
O2293     Cu2296   2.006       .  S
O2293      C2298   1.278       .  A
O2294     Cu2296   2.010   1_655  S
O2294      C2297   1.277       .  A
Cu2295    Cu2296   2.372       .  S
C2297      C2738   1.477       .  S
C2298      C2701   1.477       .  S
C2299      C2685   1.482       .  S
C2300      C2692   1.478       .  S
O2301     Cu2309   2.015       .  S
O2301      C2311   1.280   1_565  A
O2302     Cu2309   2.014       .  S
O2302      C2312   1.279   1_565  A
O2303     Cu2309   2.005       .  S
O2304     Cu2309   2.005       .  S
O2304      C2314   1.276       .  A
O2305     Cu2310   2.019       .  S
O2306     Cu2310   2.018       .  S
O2306      C2313   1.278       .  A
O2307     Cu2310   2.003       .  S
O2308     Cu2310   2.005       .  S
C2311      C2719   1.482       .  S
C2312      C2709   1.481       .  S
C2313      C2677   1.479       .  S
C2314      C2734   1.478       .  S
O2315     Cu2323   2.007       .  S
O2315      C2325   1.276       .  A
O2316     Cu2323   2.003       .  S
O2316      C2326   1.278       .  A
O2317     Cu2323   2.010       .  S
O2317      C2327   1.279       .  A
O2318     Cu2323   2.008       .  S
O2318      C2328   1.279       .  A
O2319     Cu2324   2.003       .  S
O2319      C2328   1.278       .  A
O2320     Cu2324   2.007       .  S
O2320      C2327   1.278       .  A
O2321     Cu2324   2.018       .  S
O2321      C2326   1.278       .  A
O2322     Cu2324   2.017       .  S
O2322      C2325   1.280       .  A
Cu2323    Cu2324   2.372       .  S
C2325      C2730   1.477       .  S
C2326      C2674   1.478       .  S
C2327      C2682   1.481       .  S
C2328      C2695   1.479       .  S
O2329      C2339   1.283       .  A
O2330     Cu2337   2.036       .  S
O2330      C2340   1.283       .  A
O2331     Cu2337   1.977       .  S
O2331      C2341   1.271       .  A
O2332     Cu2337   1.975   1_556  S
O2332      C2342   1.271       .  A
O2333     Cu2338   2.024   1_556  S
O2334     Cu2338   2.025       .  S
O2335     Cu2338   1.994       .  S
C2339      C2650   1.482       .  S
C2340      C2660   1.482       .  S
C2341      C2847   1.475       .  S
C2342      C2669   1.475       .  S
O2343     Cu2351   1.992   1_556  S
O2344     Cu2351   1.994       .  S
O2345     Cu2351   2.022       .  S
O2346     Cu2351   2.022       .  S
O2347     Cu2352   1.982       .  S
O2347      C2356   1.274       .  A
O2348     Cu2352   1.983       .  S
O2348      C2355   1.274       .  A
O2349     Cu2352   2.041       .  S
O2349      C2354   1.283       .  A
O2350     Cu2352   2.039   1_556  S
O2350      C2353   1.283       .  A
C2353      C2646   1.474       .  S
C2354      C2834   1.474       .  S
C2355      C2653   1.482       .  S
C2356      C2663   1.482       .  S
O2357     Cu2365   1.996       .  S
O2357      C2367   1.274       .  A
O2358     Cu2365   1.995   1_556  S
O2358      C2368   1.275       .  A
O2359      C2369   1.281       .  A
O2360     Cu2365   2.021       .  S
O2360      C2370   1.281       .  A
O2361     Cu2366   1.994       .  S
O2361      C2370   1.276       .  A
O2362      C2369   1.276       .  A
O2363     Cu2366   2.028   1_556  S
O2363      C2368   1.281       .  A
O2364     Cu2366   2.025       .  S
O2364      C2367   1.282       .  A
Cu2365    Cu2366   2.372       .  S
C2367      C2800   1.476       .  S
C2368      C2642   1.475       .  S
C2369      C2622   1.481       .  S
C2370      C2632   1.481       .  S
O2371     Cu2379   2.029       .  S
O2371      C2381   1.282       .  A
O2372     Cu2379   2.025   1_556  S
O2372      C2382   1.280       .  A
O2373     Cu2379   1.994       .  S
O2373      C2383   1.276       .  A
O2374     Cu2379   1.996       .  S
O2374      C2384   1.276       .  A
O2375     Cu2380   2.021       .  S
O2375      C2384   1.281       .  A
O2376     Cu2380   2.021       .  S
O2376      C2383   1.281       .  A
O2377     Cu2380   1.990   1_556  S
O2377      C2382   1.275       .  A
O2378     Cu2380   1.990       .  S
O2378      C2381   1.274       .  A
Cu2379    Cu2380   2.372       .  S
C2381      C2786   1.474       .  S
C2382      C2617   1.476       .  S
C2383      C2635   1.480       .  S
C2384      C2625   1.481       .  S
O2385     Cu2393   2.007       .  S
O2385      C2395   1.277   1_655  A
O2386     Cu2393   2.006       .  S
O2386      C2396   1.277   1_655  A
O2387      C2397   1.280   1_655  A
O2388     Cu2393   2.008       .  S
O2388      C2398   1.279   1_655  A
O2389     Cu2394   1.993       .  S
O2391     Cu2394   2.024       .  S
O2392     Cu2394   2.024       .  S
C2395      C2670   1.473       .  S
C2396      C2608   1.468       .  S
C2397      C2588   1.481       .  S
C2398      C2598   1.480       .  S
O2399     Cu2407   2.006       .  S
O2399      C2409   1.279   1_655  A
O2400     Cu2407   2.010       .  S
O2400      C2410   1.277   1_655  A
O2401     Cu2407   1.999       .  S
O2401      C2411   1.277   1_655  A
O2402     Cu2407   2.007       .  S
O2402      C2412   1.278   1_655  A
O2403     Cu2408   2.025       .  S
O2404     Cu2408   2.033       .  S
O2405     Cu2408   1.992       .  S
O2406     Cu2408   1.994       .  S
C2409      C2645   1.477       .  S
C2410      C2578   1.470       .  S
C2411      C2601   1.481       .  S
C2412      C2591   1.481       .  S
O2413     Cu2421   2.006       .  S
O2413      C2423   1.279       .  A
O2414     Cu2421   2.007       .  S
O2414      C2424   1.277       .  A
O2415      C2425   1.277       .  A
O2416     Cu2421   2.009       .  S
O2416      C2426   1.278       .  A
O2417     Cu2422   2.007       .  S
O2417      C2426   1.278       .  A
O2418      C2425   1.279       .  A
O2419     Cu2422   2.016       .  S
O2419      C2424   1.279       .  A
O2420     Cu2422   2.018       .  S
O2420      C2423   1.278       .  A
Cu2421    Cu2422   2.372       .  S
C2423      C2641   1.480       .  S
C2424      C2568   1.474       .  S
C2425      C2548   1.480       .  S
C2426      C2558   1.481       .  S
O2427     Cu2435   2.002       .  S
O2427      C2437   1.277       .  A
O2428     Cu2435   2.002       .  S
O2428      C2438   1.277       .  A
O2429     Cu2435   2.016       .  S
O2429      C2439   1.280       .  A
O2430     Cu2435   2.007       .  S
O2430      C2440   1.279       .  A
O2431     Cu2436   2.007       .  S
O2431      C2440   1.278       .  A
O2432     Cu2436   2.000       .  S
O2432      C2439   1.277       .  A
O2433     Cu2436   2.012       .  S
O2433      C2438   1.278       .  A
O2434     Cu2436   2.012       .  S
O2434      C2437   1.278       .  A
Cu2435    Cu2436   2.373       .  S
C2437      C2618   1.473       .  S
C2438      C2538   1.469       .  S
C2439      C2561   1.481       .  S
C2440      C2551   1.480       .  S
O2442     Cu2449   2.002   1_655  S
O2443     Cu2449   2.017   1_655  S
O2444     Cu2449   2.014       .  S
O2445     Cu2450   2.002       .  S
O2445      C2454   1.277       .  A
O2446     Cu2450   2.000       .  S
O2446      C2453   1.276   1_455  A
O2447     Cu2450   2.012   1_655  S
O2447      C2452   1.279       .  A
O2448      C2451   1.278       .  A
C2451      C2528   1.483       .  S
C2452      C2518   1.479       .  S
C2453      C2726   1.473       .  S
C2454      C2611   1.473       .  S
O2455     Cu2463   2.005   1_655  S
O2455      C2465   1.278       .  A
O2456      C2466   1.278       .  A
O2457     Cu2463   2.006       .  S
O2457      C2467   1.277       .  A
O2458     Cu2463   2.008       .  S
O2458      C2468   1.278       .  A
O2459     Cu2464   2.014       .  S
O2459      C2468   1.278       .  A
O2460     Cu2464   2.013       .  S
O2460      C2467   1.279       .  A
O2461      C2466   1.279       .  A
O2462     Cu2464   2.004   1_655  S
O2462      C2465   1.278       .  A
Cu2463    Cu2464   2.373       .  S
C2465      C2501   1.478       .  S
C2466      C2508   1.483       .  S
C2467      C2702   1.475       .  S
C2468      C2581   1.475       .  S
O2469     Cu2477   2.019       .  S
O2469      C2479   1.279       .  A
O2470     Cu2477   2.022       .  S
O2470      C2480   1.279       .  A
O2471     Cu2477   2.014       .  S
O2471      C2481   1.279       .  A
O2472     Cu2477   2.003       .  S
O2472      C2482   1.277       .  A
O2473     Cu2478   2.013       .  S
O2474     Cu2478   2.008       .  S
O2475     Cu2478   2.001       .  S
O2476     Cu2478   2.002       .  S
C2479      C2571   1.471       .  S
C2480      C2678   1.475       .  S
C2481      C2531   1.483       .  S
C2482      C2521   1.480       .  S
O2483     Cu2491   2.005       .  S
O2483      C2493   1.277       .  A
O2484     Cu2491   2.005       .  S
O2484      C2494   1.277       .  A
O2485     Cu2491   2.005       .  S
O2485      C2495   1.278       .  A
O2486     Cu2491   2.009       .  S
O2486      C2496   1.278       .  A
O2487     Cu2492   2.001       .  S
O2487      C2496   1.278       .  A
O2488     Cu2492   2.014       .  S
O2488      C2495   1.279       .  A
O2489     Cu2492   2.014       .  S
O2489      C2494   1.279       .  A
O2490     Cu2492   2.012       .  S
O2490      C2493   1.278       .  A
Cu2491    Cu2492   2.373       .  S
C2493      C2541   1.471       .  S
C2494      C2673   1.474       .  S
C2495      C2511   1.482       .  S
C2496      C2498   1.478       .  S
C2497      C2498   1.405       .  A
C2497      C2502   1.395       .  A
C2497      H2503   1.083       .  S
C2498      C2499   1.405       .  A
C2499      C2500   1.398       .  A
C2499      H2504   1.083       .  S
C2500      C2501   1.406       .  A
C2500      H2505   1.083       .  S
C2501      C2502   1.405       .  A
C2502      H2506   1.083       .  S
C2507      C2508   1.406       .  A
C2507      C2512   1.398       .  A
C2507      H2513   1.083       .  S
C2508      C2509   1.406       .  A
C2509      C2510   1.399       .  A
C2509      H2514   1.083       .  S
C2510      C2511   1.406       .  A
C2510      H2515   1.083       .  S
C2511      C2512   1.406       .  A
C2512      H2516   1.083       .  S
C2517      C2518   1.404       .  A
C2517      C2522   1.397       .  A
C2517      H2523   1.083       .  S
C2519      C2520   1.397       .  A
C2519      H2524   1.083       .  S
C2520      H2525   1.083       .  S
C2521      C2522   1.406       .  A
C2522      H2526   1.083       .  S
C2527      C2532   1.398       .  A
C2527      H2533   1.083       .  S
C2528      C2529   1.405       .  A
C2529      C2530   1.399       .  A
C2529      H2534   1.083       .  S
C2530      C2531   1.407       .  A
C2530      H2535   1.083       .  S
C2532      H2536   1.083       .  S
C2537      C2538   1.403       .  A
C2537      C2542   1.399       .  A
C2537      H2543   1.083       .  S
C2538      C2539   1.403       .  A
C2539      C2540   1.397       .  A
C2539      H2544   1.083       .  S
C2540      C2541   1.403       .  A
C2540      H2545   1.083       .  S
C2541      C2542   1.404       .  A
C2542      H2546   1.083       .  S
C2547      C2548   1.406       .  A
C2547      C2552   1.396       .  A
C2547      H2553   1.083       .  S
C2548      C2549   1.405       .  A
C2549      C2550   1.398       .  A
C2549      H2554   1.083       .  S
C2550      C2551   1.406       .  A
C2550      H2555   1.083       .  S
C2551      C2552   1.405       .  A
C2552      H2556   1.083       .  S
C2557      C2558   1.405       .  A
C2557      C2562   1.397       .  A
C2557      H2563   1.083       .  S
C2558      C2559   1.406       .  A
C2559      C2560   1.399       .  A
C2559      H2564   1.083       .  S
C2560      C2561   1.405       .  A
C2560      H2565   1.083       .  S
C2561      C2562   1.406       .  A
C2562      H2566   1.083       .  S
C2567      C2568   1.404       .  A
C2567      C2572   1.400       .  A
C2567      H2573   1.083       .  S
C2569      C2570   1.398       .  A
C2569      H2574   1.083       .  S
C2570      H2575   1.083       .  S
C2571      C2572   1.403       .  A
C2572      H2576   1.083       .  S
C2577      C2578   1.403   1_655  A
C2577      C2582   1.401       .  A
C2577      H2583   1.083       .  S
C2579      C2580   1.395       .  A
C2579      H2584   1.083       .  S
C2580      H2585   1.083       .  S
C2581      C2582   1.405   1_455  A
C2582      H2586   1.083       .  S
C2587      C2592   1.397       .  A
C2587      H2593   1.083       .  S
C2588      C2589   1.405   1_455  A
C2589      C2590   1.399       .  A
C2589      H2594   1.083       .  S
C2590      C2591   1.407   1_655  A
C2590      H2595   1.083       .  S
C2592      H2596   1.083       .  S
C2597      C2602   1.399       .  A
C2597      H2603   1.083       .  S
C2598      C2599   1.404   1_455  A
C2599      C2600   1.396       .  A
C2599      H2604   1.083       .  S
C2600      C2601   1.406   1_655  A
C2600      H2605   1.083       .  S
C2602      H2606   1.083       .  S
C2607      C2612   1.401       .  A
C2607      H2613   1.083       .  S
C2608      C2609   1.402   1_455  A
C2609      C2610   1.397       .  A
C2609      H2614   1.083       .  S
C2610      C2611   1.404   1_655  A
C2610      H2615   1.083       .  S
C2612      H2616   1.083       .  S
C2617      C2618   1.347       .  D
C2617      H2619   1.086       .  S
C2618      H2620   1.087       .  S
C2621      C2622   1.408       .  A
C2621      C2626   1.398       .  A
C2621      H2627   1.083       .  S
C2622      C2623   1.404       .  A
C2623      C2624   1.398       .  A
C2623      H2628   1.083       .  S
C2624      C2625   1.408       .  A
C2624      H2629   1.083       .  S
C2625      C2626   1.404       .  A
C2626      H2630   1.083       .  S
C2631      C2632   1.408       .  A
C2631      C2636   1.398       .  A
C2631      H2637   1.083       .  S
C2632      C2633   1.404       .  A
C2633      C2634   1.398       .  A
C2633      H2638   1.083       .  S
C2634      C2635   1.408       .  A
C2634      H2639   1.083       .  S
C2635      C2636   1.403       .  A
C2636      H2640   1.083       .  S
C2641      C2642   1.344       .  D
C2641      H2643   1.086       .  S
C2649      C2654   1.398       .  A
C2649      H2655   1.083       .  S
C2650      C2651   1.402       .  A
C2651      C2652   1.398       .  A
C2651      H2656   1.083       .  S
C2652      C2653   1.410       .  A
C2652      H2657   1.083       .  S
C2654      H2658   1.083       .  S
C2659      C2660   1.401       .  A
C2659      C2664   1.398       .  A
C2659      H2665   1.083       .  S
C2661      C2662   1.398       .  A
C2661      H2666   1.083       .  S
C2662      H2667   1.083       .  S
C2663      C2664   1.410       .  A
C2664      H2668   1.083       .  S
C2670      H2672   1.087       .  S
C2673      C2674   1.345       .  D
C2673      H2675   1.087       .  S
C2674      H2676   1.086       .  S
C2677      C2678   1.345       .  D
C2677      H2679   1.086       .  S
C2681      C2682   1.406       .  A
C2681      C2686   1.398       .  A
C2681      H2687   1.083       .  S
C2682      C2683   1.405       .  A
C2683      C2684   1.398       .  A
C2683      H2688   1.083       .  S
C2684      C2685   1.406       .  A
C2684      H2689   1.083       .  S
C2685      C2686   1.406       .  A
C2686      H2690   1.083       .  S
C2691      C2692   1.405       .  A
C2691      C2696   1.396       .  A
C2691      H2697   1.083       .  S
C2692      C2693   1.405       .  A
C2693      C2694   1.397       .  A
C2693      H2698   1.083       .  S
C2694      C2695   1.406       .  A
C2694      H2699   1.083       .  S
C2695      C2696   1.405       .  A
C2696      H2700   1.083       .  S
C2701      C2702   1.345       .  D
C2701      H2703   1.087       .  S
C2705      C2706   1.406   1_565  A
C2705      C2710   1.400       .  A
C2705      H2711   1.083       .  S
C2707      C2708   1.396       .  A
C2707      H2712   1.083       .  S
C2708      H2713   1.083       .  S
C2709      C2710   1.406   1_545  A
C2710      H2714   1.083       .  S
C2715      C2716   1.407   1_565  A
C2715      C2720   1.397       .  A
C2715      H2721   1.083       .  S
C2717      C2718   1.399       .  A
C2717      H2722   1.083       .  S
C2718      H2723   1.083       .  S
C2719      C2720   1.404   1_545  A
C2720      H2724   1.083       .  S
C2725      C2726   1.343   1_455  D
C2725      H2727   1.087       .  S
C2729      C2730   1.344       .  D
C2729      H2731   1.087       .  S
C2730      H2732   1.087       .  S
C2733      C2734   1.342   1_545  D
C2733      H2735   1.087       .  S
C2737      C2738   1.345       .  D
C2737      H2739   1.087       .  S
C2741      C2742   1.406       .  A
C2741      C2746   1.398       .  A
C2741      H2747   1.083       .  S
C2742      C2743   1.405       .  A
C2743      C2744   1.396       .  A
C2743      H2748   1.083       .  S
C2744      C2745   1.405       .  A
C2744      H2749   1.083       .  S
C2745      C2746   1.405       .  A
C2746      H2750   1.083       .  S
C2751      C2752   1.406       .  A
C2751      C2756   1.397       .  A
C2751      H2757   1.083       .  S
C2752      C2753   1.406       .  A
C2753      C2754   1.398       .  A
C2753      H2758   1.083       .  S
C2754      C2755   1.406       .  A
C2754      H2759   1.083       .  S
C2755      C2756   1.405       .  A
C2756      H2760   1.083       .  S
C2761      C2762   1.343   1_565  D
C2761      H2763   1.087       .  S
C2765      C2766   1.407   1_565  A
C2765      C2770   1.398       .  A
C2765      H2771   1.083       .  S
C2767      C2768   1.398       .  A
C2767      H2772   1.083       .  S
C2768      H2773   1.083       .  S
C2769      C2770   1.404   1_545  A
C2770      H2774   1.083       .  S
C2775      C2780   1.396       .  A
C2775      H2781   1.083       .  S
C2776      C2777   1.404   1_545  A
C2777      C2778   1.398       .  A
C2777      H2782   1.083       .  S
C2778      C2779   1.407   1_565  A
C2778      H2783   1.083       .  S
C2780      H2784   1.083       .  S
C2785      C2786   1.340       .  D
C2785      H2787   1.087       .  S
C2786      H2788   1.087       .  S
C2789      C2790   1.404       .  A
C2789      C2794   1.399       .  A
C2789      H2795   1.083       .  S
C2790      C2791   1.402       .  A
C2791      C2792   1.400       .  A
C2791      H2796   1.083       .  S
C2792      C2793   1.406       .  A
C2792      H2797   1.083       .  S
C2793      C2794   1.404       .  A
C2794      H2798   1.083       .  S
C2799      C2800   1.340       .  D
C2800      H2802   1.087       .  S
C2803      C2804   1.408       .  A
C2803      C2808   1.397       .  A
C2803      H2809   1.083       .  S
C2804      C2805   1.403       .  A
C2805      C2806   1.398       .  A
C2805      H2810   1.083       .  S
C2806      C2807   1.408       .  A
C2806      H2811   1.083       .  S
C2807      C2808   1.403       .  A
C2808      H2812   1.083       .  S
C2813      C2814   1.409       .  A
C2813      C2818   1.398       .  A
C2813      H2819   1.083       .  S
C2814      C2815   1.403       .  A
C2815      C2816   1.399       .  A
C2815      H2820   1.083       .  S
C2816      C2817   1.409       .  A
C2816      H2821   1.083       .  S
C2817      C2818   1.403       .  A
C2818      H2822   1.083       .  S
C2823      C2828   1.397       .  A
C2823      H2829   1.083       .  S
C2824      C2825   1.406       .  A
C2825      C2826   1.399       .  A
C2825      H2830   1.083       .  S
C2826      C2827   1.402       .  A
C2826      H2831   1.083       .  S
C2828      H2832   1.083       .  S
C2833      C2834   1.340       .  D
C2833      H2835   1.086       .  S
C2837      C2838   1.403       .  A
C2837      C2842   1.400       .  A
C2837      H2843   1.083       .  S
C2839      C2840   1.398       .  A
C2839      H2844   1.083       .  S
C2840      H2845   1.083       .  S
C2841      C2842   1.405       .  A
C2842      H2846   1.083       .  S
C2847      C2848   1.338       .  D
C2848      H2850   1.088       .  S
C2851      C2856   1.397       .  A
C2851      H2857   1.083       .  S
C2852      C2853   1.404       .  A
C2853      C2854   1.400       .  A
C2853      H2858   1.083       .  S
C2854      C2855   1.408       .  A
C2854      H2859   1.083       .  S
C2856      H2860   1.083       .  S
C2861      C2866   1.399       .  A
C2861      H2867   1.083       .  S
C2862      C2863   1.403       .  A
C2863      C2864   1.396       .  A
C2863      H2868   1.083       .  S
C2864      C2865   1.407   1_655  A
C2864      H2869   1.083       .  S
C2866      H2870   1.083       .  S
C2871      C2876   1.398       .  A
C2871      H2877   1.083       .  S
C2873      C2874   1.400       .  A
C2873      H2878   1.083       .  S
C2874      H2879   1.083       .  S
C2876      H2880   1.083       .  S
