geometry optimzed in LAMMPS
_audit_creation_date              2020-11-30 
_audit_creation_method            'lammps2cif' 
_symmetry_space_group_name_H-M    'P1' 
_symmetry_Int_Tables_number       1 
_symmetry_cell_setting            triclinic 
loop_ 
_symmetry_equiv_pos_as_xyz 
  x,y,z 
_cell_length_a                    40.1215612 
_cell_length_b                    41.08566344707635 
_cell_length_c                    40.95272049577076 
_cell_angle_alpha                 89.81844572591203 
_cell_angle_beta                  89.07504429283486 
_cell_angle_gamma                 89.7835462333163 
loop_ 
_atom_site_label 
_atom_site_type_symbol 
_atom_site_fract_x 
_atom_site_fract_y 
_atom_site_fract_z 
_atom_site_charge 
C1          C  0.25942359  0.85318062  0.96669496     0.03200
C2          C  0.25110769  0.88638622  0.96877081    -0.12900
C3          C  0.24720988  0.90143632  0.99944209     0.00700
C4          C  0.24967928  0.88250162  0.02789692    -0.11500
C5          C  0.25852057  0.84959279  0.02617986     0.03200
C6          C  0.26318241  0.83499027  0.99553355    -0.10900
H7          H  0.24992027  0.90085847  0.94664927     0.08800
H8          H  0.24644760  0.89381325  0.05161861     0.06300
H9          H  0.27026374  0.80954001  0.99411711     0.06200
C10         C  0.81188540  0.09414127  0.02960670     0.03200
C11         C  0.81005006  0.10901430  0.99900735    -0.12900
C12         C  0.80941236  0.09036006  0.97068399     0.00700
C13         C  0.81021102  0.05642333  0.97278131    -0.11500
C14         C  0.81228146  0.04086868  0.00329421     0.03200
C15         C  0.81313154  0.05994852  0.03177914    -0.10900
H16         H  0.81027273  0.13534675  0.99706269     0.08800
H17         H  0.80869650  0.04220917  0.95061437     0.06300
H18         H  0.81509154  0.04831411  0.05545526     0.06200
C19         C  0.93253540  0.93279829  0.29975640     0.03200
C20         C  0.91530098  0.96300914  0.29945781    -0.12900
C21         C  0.93293231  0.99265798  0.30130680     0.00700
C22         C  0.96780212  0.99177340  0.30291355    -0.11500
C23         C  0.98550458  0.96226603  0.30199843     0.03200
C24         C  0.96765626  0.93284469  0.30130817    -0.10900
H25         H  0.88847003  0.96345006  0.29694719     0.08800
H26         H  0.98137267  0.01451847  0.30378900     0.06300
H27         H  0.98117480  0.90998484  0.30006180     0.06200
C28         C  0.18721563  0.00312069  0.70830028     0.03200
C29         C  0.20373214  0.97328803  0.70521824    -0.12900
C30         C  0.18595244  0.94458295  0.70040137     0.00700
C31         C  0.15105251  0.94596375  0.69753789    -0.11500
C32         C  0.13387683  0.97584563  0.70033849     0.03200
C33         C  0.15232814  0.00440217  0.70578542    -0.10900
H34         H  0.23045046  0.97215337  0.70871714     0.08800
H35         H  0.13721217  0.92362456  0.69440490     0.06300
H36         H  0.13966867  0.02763813  0.70806374     0.06200
C37         C  0.09583964  0.67085603  0.10915345     0.03200
C38         C  0.06690027  0.67418897  0.12841609    -0.12900
C39         C  0.03556428  0.67624447  0.11383624     0.00700
C40         C  0.03329067  0.67402932  0.07974284    -0.11500
C41         C  0.06215961  0.67026746  0.06035199     0.03200
C42         C  0.09334446  0.66886501  0.07521399    -0.10900
H43         H  0.06896293  0.67709543  0.15460363     0.08800
H44         H  0.00920215  0.67604093  0.06829096     0.06300
H45         H  0.11580932  0.66649807  0.06032143     0.06200
C46         C  0.02460677  0.28490654  0.87626573     0.03200
C47         C  0.02546823  0.28935589  0.91014359    -0.12900
C48         C  0.05592770  0.29274185  0.92591772     0.00700
C49         C  0.08566738  0.29335172  0.90742019    -0.11500
C50         C  0.08548893  0.28858134  0.87353914     0.03200
C51         C  0.05469204  0.28445110  0.85805925    -0.10900
H52         H  0.00261755  0.28761122  0.92452671     0.08800
H53         H  0.10921346  0.29508930  0.91987386     0.06300
H54         H  0.05415110  0.28004437  0.83200031     0.06200
C55         C  0.80335167  0.84582436  0.02459963     0.03200
C56         C  0.80363174  0.83223037  0.99335393    -0.12900
C57         C  0.80522585  0.85224646  0.96575081     0.00700
C58         C  0.80582916  0.88606157  0.96926268    -0.11500
C59         C  0.80626116  0.90022967  0.00043658     0.03200
C60         C  0.80503664  0.87983726  0.02812004    -0.10900
H61         H  0.80347001  0.80599759  0.99049217     0.08800
H62         H  0.80671313  0.90126376  0.94758902     0.06300
H63         H  0.80617285  0.89022668  0.05234672     0.06200
C64         C  0.25254030  0.09295640  0.97763311     0.03200
C65         C  0.24551488  0.05955231  0.97746744    -0.12900
C66         C  0.24248558  0.04204530  0.00688644     0.00700
C67         C  0.24576591  0.05863023  0.03674910    -0.11500
C68         C  0.25334780  0.09193719  0.03718813     0.03200
C69         C  0.25636276  0.10891744  0.00758784    -0.10900
H70         H  0.24494585  0.04676918  0.95438682     0.08800
H71         H  0.24424544  0.04528762  0.05958990     0.06300
H72         H  0.26251293  0.13458306  0.00788972     0.06200
C73         C  0.93713678  0.94481917  0.70417169     0.03200
C74         C  0.91934456  0.97427123  0.70610596    -0.12900
C75         C  0.93575792  0.00430355  0.70389220     0.00700
C76         C  0.97063656  0.00476924  0.70011270    -0.11500
C77         C  0.98901274  0.97567065  0.69830198     0.03200
C78         C  0.97203628  0.94576680  0.69971466    -0.10900
H79         H  0.89273253  0.97382109  0.71100671     0.08800
H80         H  0.98362675  0.02783438  0.69892679     0.06300
H81         H  0.98615153  0.92328688  0.69829747     0.06200
C82         C  0.18090343  0.00012148  0.28440109     0.03200
C83         C  0.19935684  0.97133518  0.28059267    -0.12900
C84         C  0.18377332  0.94098070  0.28245010     0.00700
C85         C  0.14921179  0.93930422  0.28819264    -0.11500
C86         C  0.13013636  0.96781605  0.29190303     0.03200
C87         C  0.14625320  0.99821357  0.29002410    -0.10900
H88         H  0.22582932  0.97256980  0.27500886     0.08800
H89         H  0.13707027  0.91579001  0.28879257     0.06300
H90         H  0.13182359  0.02035720  0.29313172     0.06200
C91         C  0.03357052  0.66423817  0.86756262     0.03200
C92         C  0.06463647  0.66642826  0.85119075    -0.12900
C93         C  0.09421771  0.66715291  0.86902526     0.00700
C94         C  0.09264806  0.66526570  0.90308325    -0.11500
C95         C  0.06192171  0.66406270  0.91975488     0.03200
C96         C  0.03246431  0.66279550  0.90182177    -0.10900
H97         H  0.06568104  0.66910846  0.82486041     0.08800
H98         H  0.11560791  0.66578732  0.91665863     0.06300
H99         H  0.00855442  0.66300890  0.91452994     0.06200
C100        C  0.09791326  0.27657120  0.11314689     0.03200
C101        C  0.06990716  0.27026067  0.13295937    -0.12900
C102        C  0.03795516  0.26916678  0.11946380     0.00700
C103        C  0.03414927  0.27521751  0.08595071    -0.11500
C104        C  0.06213375  0.28156964  0.06598370     0.03200
C105        C  0.09394790  0.28210154  0.07976440    -0.10900
H106        H  0.07321254  0.26465342  0.15859095     0.08800
H107        H  0.00964543  0.27392069  0.07527915     0.06300
H108        H  0.11577778  0.28621541  0.06437470     0.06200
C109        C  0.43678916  0.50333321  0.79366399     0.03200
C110        C  0.41910102  0.47398778  0.79496239    -0.12900
C111        C  0.43612999  0.44425251  0.79776192     0.00700
C112        C  0.47095483  0.44416367  0.80097522    -0.11500
C113        C  0.48894832  0.47342063  0.80002992     0.03200
C114        C  0.47159774  0.50295331  0.79626629    -0.10900
H115        H  0.39236113  0.47416725  0.79153261     0.08800
H116        H  0.48416454  0.42118020  0.80273812     0.06300
H117        H  0.48515528  0.52570054  0.79502560     0.06200
C118        C  0.44053784  0.49880893  0.20275489     0.03200
C119        C  0.47504269  0.49909888  0.19643974    -0.12900
C120        C  0.49321336  0.46977743  0.19445262     0.00700
C121        C  0.47619625  0.44003885  0.19795776    -0.11500
C122        C  0.44162532  0.43959780  0.20398139     0.03200
C123        C  0.42416806  0.46906359  0.20639316    -0.10900
H124        H  0.48772242  0.52214515  0.19321116     0.08800
H125        H  0.48992359  0.41731707  0.19658132     0.06300
H126        H  0.39775659  0.46890425  0.21242352     0.06200
C127        C  0.36539173  0.34917329  0.53356967     0.03200
C128        C  0.37249882  0.38266540  0.53397245    -0.12900
C129        C  0.37342660  0.40097882  0.50483581     0.00700
C130        C  0.36855944  0.38502846  0.47494798    -0.11500
C131        C  0.36191954  0.35158031  0.47410354     0.03200
C132        C  0.36080239  0.33378625  0.50335973    -0.10900
H133        H  0.37598109  0.39472753  0.55712797     0.08800
H134        H  0.36797287  0.39892509  0.45242572     0.06300
H135        H  0.35572804  0.30792487  0.50252224     0.06200
Zr136      Zr  0.26031021  0.19097677  0.78273143     2.17500
O137        O  0.20140019  0.17744625  0.77912518    -0.51200
O138        O  0.26334937  0.16380424  0.83539676    -0.74400
O139        O  0.25032983  0.13635353  0.76266613    -0.81200
O140        O  0.23705722  0.27704369  0.81191421    -0.83000
O141        O  0.29143774  0.12190788  0.72684992    -0.78600
O142        O  0.21749043  0.22553337  0.80699814    -0.90200
O143        O  0.31566995  0.17109116  0.85391376    -0.76200
O144        O  0.31379987  0.16594849  0.77981625    -0.85700
O145        O  0.29487235  0.22373678  0.81601323    -0.85400
O146        O  0.27558049  0.19097038  0.72572340    -0.72100
O147        O  0.25901736  0.24420271  0.75884198    -0.84300
Zr148      Zr  0.36449169  0.25248941  0.73157316     2.26400
Zr149      Zr  0.33033860  0.16703000  0.72335747     2.06300
Zr150      Zr  0.29479670  0.27663356  0.79150443     2.10000
Zr151      Zr  0.34850843  0.19896283  0.81228823     1.78800
O152        O  0.26847470  0.32966330  0.78445726    -0.93100
O153        O  0.37410170  0.14544098  0.81887808    -0.40900
O154        O  0.34922864  0.25241478  0.78855676    -0.77500
O155        O  0.36661213  0.19923455  0.75621194    -0.96200
O156        O  0.32949546  0.22003013  0.69882182    -0.89500
O157        O  0.31109943  0.27771583  0.73482614    -0.92300
C158        C  0.28580130  0.16039871  0.85711015     1.01400
C159        C  0.21388408  0.25557531  0.81490792     1.14300
C160        C  0.26400531  0.11639022  0.74246131     1.05100
O161        O  0.36193892  0.11812161  0.73648101    -0.94500
O162        O  0.38371248  0.16811117  0.69404729    -0.90200
O163        O  0.40431701  0.21867636  0.70223501    -0.83400
C164        C  0.40659285  0.18972148  0.69082346     1.11800
O165        O  0.21658709  0.24027457  0.69172810    -0.96500
Zr166      Zr  0.27592029  0.24470743  0.70271137     1.88900
O167        O  0.36051366  0.27926152  0.67830802    -0.73100
O168        O  0.32042837  0.14919878  0.66767271    -0.52400
O169        O  0.26374370  0.21433960  0.65336643    -0.97100
O170        O  0.24725366  0.29713402  0.70099594    -0.54300
O171        O  0.30787961  0.27236919  0.66035442    -0.73600
C172        C  0.33787604  0.28264244  0.65668416     0.98700
O173        O  0.42184280  0.27159491  0.73542599    -0.62500
O174        O  0.30395238  0.28782281  0.84909205    -0.57300
O175        O  0.37730490  0.30504940  0.75467270    -0.93900
O176        O  0.33532704  0.32047411  0.78911080    -0.92400
O177        O  0.36151654  0.23083051  0.86043919    -0.92700
O178        O  0.40784464  0.20057657  0.82383300    -0.91500
C179        C  0.36352777  0.32522626  0.77463757     1.17500
H180        H  0.28652488  0.22509492  0.83822859     0.33500
H181        H  0.38898260  0.19053075  0.75548555     0.44300
H182        H  0.31203680  0.29976449  0.72665682     0.37900
H183        H  0.26012482  0.17802660  0.71362058     0.34300
H184        H  0.37669327  0.14271595  0.84273925     0.26100
H185        H  0.32848714  0.12638857  0.66707894     0.32100
H186        H  0.28582440  0.20739133  0.64473578     0.38000
H187        H  0.36044347  0.21513365  0.87881193     0.32400
H188        H  0.32752315  0.29473980  0.85015118     0.31300
H189        H  0.26739542  0.33917364  0.80664331     0.33000
H190        H  0.26375995  0.31266721  0.69185700     0.32000
H191        H  0.41682009  0.21775606  0.80917880     0.36000
H192        H  0.43482520  0.25303908  0.74412798     0.28700
H193        H  0.19809982  0.15774597  0.79277163     0.32900
H194        H  0.21327044  0.25152082  0.67059129     0.35800
H195        H  0.29095640  0.30787096  0.85367974     0.28400
H196        H  0.42996994  0.27455948  0.71264250     0.41300
H197        H  0.37985724  0.12570369  0.75091285     0.31300
H198        H  0.35653876  0.12968238  0.81314856     0.38900
H199        H  0.24451405  0.30353370  0.72418241     0.30800
H200        H  0.29590108  0.14747936  0.66610901     0.30900
H201        H  0.19789917  0.17031412  0.75636908     0.31100
C202        C  0.81395362  0.34919519  0.46478615     0.03200
C203        C  0.80759097  0.38269382  0.46093042    -0.12900
C204        C  0.80400624  0.40299149  0.48842641     0.00700
C205        C  0.80654068  0.38920188  0.51977749    -0.11500
C206        C  0.81246790  0.35585443  0.52365121     0.03200
C207        C  0.81672076  0.33612474  0.49615282    -0.10900
H208        H  0.80477234  0.39273105  0.43662617     0.08800
H209        H  0.80429386  0.40436127  0.54130210     0.06300
H210        H  0.82028786  0.31012522  0.49923781     0.06200
C211        C  0.59158898  0.16567192  0.61991944     0.03200
C212        C  0.59101626  0.16548273  0.58571462    -0.12900
C213        C  0.56065439  0.16477210  0.56914969     0.00700
C214        C  0.53058186  0.16391885  0.58729403    -0.11500
C215        C  0.53078515  0.16441361  0.62154107     0.03200
C216        C  0.56140164  0.16463304  0.63764852    -0.10900
H217        H  0.61417439  0.16817073  0.57201969     0.08800
H218        H  0.50698479  0.16439692  0.57478591     0.06300
H219        H  0.56171005  0.16533510  0.66409884     0.06200
Zr220      Zr  0.85226246  0.18917827  0.78173067     2.17500
O221        O  0.89904592  0.15682487  0.80143127    -0.51200
O222        O  0.83374678  0.16350486  0.83253204    -0.74400
O223        O  0.89500078  0.22114631  0.80845368    -0.81200
O224        O  0.83039150  0.12495528  0.71691289    -0.83000
O225        O  0.87892902  0.27404090  0.81109933    -0.78600
O226        O  0.86967884  0.14028815  0.75290492    -0.90200
O227        O  0.77971458  0.17615748  0.84263762    -0.76200
O228        O  0.81704534  0.22843503  0.80739489    -0.85700
O229        O  0.79697474  0.17012459  0.77383043    -0.85400
O230        O  0.86476787  0.23941436  0.75358342    -0.72100
O231        O  0.84477487  0.18611525  0.72384974    -0.84300
Zr232      Zr  0.76440396  0.25912698  0.71467260     2.26400
Zr233      Zr  0.82849549  0.27861154  0.77911528     2.06300
Zr234      Zr  0.78896110  0.16856156  0.71611418     2.10000
Zr235      Zr  0.76168602  0.20988741  0.79853894     1.78800
O236        O  0.79552963  0.14457338  0.66205857    -0.93100
O237        O  0.75169403  0.24343225  0.84677124    -0.40900
O238        O  0.75246106  0.20800648  0.74104479    -0.77500
O239        O  0.77194136  0.26083193  0.77287161    -0.96200
O240        O  0.82040420  0.27680726  0.72135698    -0.89500
O241        O  0.79890344  0.21923225  0.68837134    -0.92300
C242        C  0.80698814  0.16211278  0.85002224     1.01400
C243        C  0.85818993  0.12062196  0.73158720     1.14300
C244        C  0.89950818  0.25081605  0.81699149     1.05100
O245        O  0.82361370  0.30551295  0.83189078    -0.94500
O246        O  0.79108258  0.32531104  0.77610333    -0.90200
O247        O  0.75125872  0.31197840  0.73972480    -0.83400
C248        C  0.76403979  0.33139484  0.76075354     1.11800
O249        O  0.91058239  0.21313267  0.69183175    -0.96500
Zr250      Zr  0.85472239  0.23620978  0.69629015     1.88900
O251        O  0.78182967  0.28479904  0.66341785    -0.73100
O252        O  0.86354656  0.32134902  0.75585114    -0.52400
O253        O  0.89762798  0.27764804  0.69038595    -0.97100
O254        O  0.86258136  0.20296896  0.64752579    -0.54300
O255        O  0.83587187  0.27172811  0.65356293    -0.73600
C256        C  0.80879340  0.28637933  0.64622730     0.98700
O257        O  0.71547362  0.28959981  0.69706586    -0.62500
O258        O  0.75607368  0.12332946  0.73756260    -0.57300
O259        O  0.72053425  0.22484917  0.69190282    -0.93900
O260        O  0.73765241  0.17241410  0.68606291    -0.92400
O261        O  0.72352576  0.16411534  0.80350866    -0.92700
O262        O  0.70390093  0.22798641  0.80190512    -0.91500
C263        C  0.71623581  0.19532162  0.68242011     1.17500
H264        H  0.79374832  0.14879047  0.78331976     0.33500
H265        H  0.75626679  0.27494298  0.78396463     0.44300
H266        H  0.79375587  0.21746260  0.66557232     0.37900
H267        H  0.88788982  0.24560363  0.75513506     0.34300
H268        H  0.76138123  0.23124942  0.86524175     0.26100
H269        H  0.86286791  0.33897743  0.77227597     0.32100
H270        H  0.88554628  0.29859090  0.69265357     0.38000
H271        H  0.71048742  0.16462222  0.78319735     0.32400
H272        H  0.73271757  0.13115783  0.73727577     0.31300
H273        H  0.78460776  0.12305349  0.66382900     0.33000
H274        H  0.84573307  0.21078246  0.63191298     0.32000
H275        H  0.69910845  0.23629958  0.77973782     0.36000
H276        H  0.71191006  0.28351286  0.67400253     0.28700
H277        H  0.90120389  0.16189508  0.82492979     0.32900
H278        H  0.91486999  0.20387792  0.71373737     0.35800
H279        H  0.75726892  0.10659553  0.72024571     0.28400
H280        H  0.69627412  0.28037200  0.70938479     0.41300
H281        H  0.83711613  0.32553891  0.82950557     0.31300
H282        H  0.76661273  0.26238237  0.84376186     0.38900
H283        H  0.85480491  0.18102965  0.65410549     0.30800
H284        H  0.88653818  0.31260420  0.75685749     0.30900
H285        H  0.91925059  0.16601293  0.79076995     0.31100
C286        C  0.36588656  0.59492662  0.52484585     0.03200
C287        C  0.35887955  0.60873231  0.49432121    -0.12900
C288        C  0.35966303  0.58967415  0.46602928     0.00700
C289        C  0.36696242  0.55634561  0.46831392    -0.11500
C290        C  0.37317016  0.54188503  0.49884144     0.03200
C291        C  0.37314829  0.56155717  0.52691448    -0.10900
H292        H  0.35268365  0.63437935  0.49255598     0.08800
H293        H  0.36603727  0.54149750  0.44653545     0.06300
H294        H  0.37746882  0.55065879  0.55061121     0.06200
Zr295      Zr  0.37003662  0.69588763  0.71938987     2.17500
O296        O  0.42890798  0.68086889  0.72169684    -0.51200
O297        O  0.36732299  0.66968681  0.66599680    -0.74400
O298        O  0.38040939  0.64147581  0.74090383    -0.81200
O299        O  0.39255908  0.78145981  0.68696065    -0.83000
O300        O  0.33843274  0.62721288  0.77590358    -0.78600
O301        O  0.41250400  0.73023441  0.69466914    -0.90200
O302        O  0.31417548  0.67635789  0.64968564    -0.76200
O303        O  0.31624682  0.67140646  0.72161933    -0.85700
O304        O  0.33567251  0.73005897  0.68677563    -0.85400
O305        O  0.35402336  0.69550908  0.77627033    -0.72100
O306        O  0.37181110  0.74898026  0.74388217    -0.84300
Zr307      Zr  0.26592964  0.75818997  0.76987332     2.26400
Zr308      Zr  0.29913538  0.67228891  0.77810088     2.06300
Zr309      Zr  0.33653748  0.78280642  0.71125773     2.10000
Zr310      Zr  0.28191303  0.70594610  0.68978280     1.78800
O311        O  0.36389676  0.83336186  0.72593848    -0.93100
O312        O  0.24911391  0.65618998  0.68972676    -0.40900
O313        O  0.28241406  0.75904297  0.71324352    -0.77500
O314        O  0.26334947  0.70529953  0.74535607    -0.96200
O315        O  0.30010065  0.72482119  0.80288616    -0.89500
O316        O  0.31954234  0.78298515  0.76768833    -0.92300
C317        C  0.34402200  0.66613574  0.64516250     1.01400
C318        C  0.41563092  0.75972094  0.68466086     1.14300
C319        C  0.36635960  0.62169907  0.76113223     1.05100
O320        O  0.26789087  0.62307563  0.76659245    -0.94500
O321        O  0.24364881  0.67366576  0.80375086    -0.90200
O322        O  0.22574794  0.72613406  0.80089540    -0.83400
C323        C  0.22205332  0.69627733  0.80939591     1.11800
O324        O  0.41207071  0.73661029  0.81177868    -0.96500
Zr325      Zr  0.35392263  0.74873218  0.80000508     1.88900
O326        O  0.26977981  0.78655813  0.82190495    -0.73100
O327        O  0.30958998  0.65852308  0.83495688    -0.52400
O328        O  0.36114261  0.72050866  0.85189219    -0.97100
O329        O  0.38464537  0.79951502  0.80518113    -0.54300
O330        O  0.32184770  0.77834997  0.84088381    -0.73600
C331        C  0.29215428  0.78977418  0.84374659     0.98700
O332        O  0.20840729  0.77542061  0.76138136    -0.62500
O333        O  0.33034834  0.80022830  0.65466983    -0.57300
O334        O  0.25224684  0.80974750  0.74561862    -0.93900
O335        O  0.29282038  0.82446401  0.70932991    -0.92400
O336        O  0.27054462  0.72294330  0.63406460    -0.92700
O337        O  0.22610140  0.72482467  0.67657437    -0.91500
C338        C  0.26454714  0.82900223  0.72397284     1.17500
H339        H  0.34398524  0.73129020  0.66457115     0.33500
H340        H  0.24077524  0.69715294  0.74573076     0.44300
H341        H  0.31867183  0.80495614  0.77607290     0.37900
H342        H  0.36928922  0.68231009  0.78858858     0.34300
H343        H  0.24090607  0.65458632  0.66711565     0.26100
H344        H  0.29787689  0.63763291  0.83861883     0.32100
H345        H  0.36488615  0.73790633  0.86809704     0.38000
H346        H  0.28034206  0.74495377  0.63216418     0.32400
H347        H  0.34236382  0.82119693  0.65316360     0.31300
H348        H  0.36559209  0.84581221  0.70523696     0.33000
H349        H  0.36801592  0.81578837  0.81277740     0.32000
H350        H  0.22092051  0.74193519  0.69287289     0.36000
H351        H  0.19642694  0.75576897  0.75409797     0.28700
H352        H  0.43147992  0.66078906  0.70855736     0.32900
H353        H  0.41742740  0.74967364  0.83127171     0.35800
H354        H  0.34415585  0.78500455  0.64148295     0.28400
H355        H  0.19903164  0.78037016  0.78333309     0.41300
H356        H  0.26822273  0.61046153  0.78722792     0.31300
H357        H  0.26567411  0.63836924  0.69146655     0.38900
H358        H  0.39006284  0.80605564  0.78243327     0.30800
H359        H  0.33356818  0.65280732  0.83562757     0.30900
H360        H  0.43311412  0.67420478  0.74452840     0.31100
C361        C  0.68683340  0.44549094  0.79792450     0.03200
C362        C  0.65184396  0.44437616  0.80046268    -0.12900
C363        C  0.63319586  0.47315886  0.80444968     0.00700
C364        C  0.64983664  0.50313241  0.80568877    -0.11500
C365        C  0.68473757  0.50458529  0.80305194     0.03200
C366        C  0.70308429  0.47558711  0.79990624    -0.10900
H367        H  0.63911326  0.42131953  0.79795897     0.08800
H368        H  0.63550723  0.52549895  0.80747577     0.06300
H369        H  0.72987969  0.47663856  0.79624693     0.06200
C370        C  0.60075030  0.77969777  0.61100408     0.03200
C371        C  0.57132880  0.78192101  0.62997697    -0.12900
C372        C  0.53998925  0.78364884  0.61518892     0.00700
C373        C  0.53847596  0.78393823  0.58088839    -0.11500
C374        C  0.56778013  0.78192382  0.56165311     0.03200
C375        C  0.59874523  0.78006866  0.57692747    -0.10900
H376        H  0.57280176  0.78119841  0.65637028     0.08800
H377        H  0.51446279  0.78359963  0.56916567     0.06300
H378        H  0.62126426  0.77737010  0.56219780     0.06200
C379        C  0.79501292  0.59786243  0.46397552     0.03200
C380        C  0.79854183  0.61069430  0.49524062    -0.12900
C381        C  0.79990807  0.59020238  0.52241751     0.00700
C382        C  0.79770093  0.55650424  0.51837339    -0.11500
C383        C  0.79435325  0.54304971  0.48708150     0.03200
C384        C  0.79278127  0.56395351  0.45986385    -0.10900
H385        H  0.79966549  0.63684605  0.49855173     0.08800
H386        H  0.79955855  0.54073997  0.53954507     0.06300
H387        H  0.78985426  0.55395594  0.43563339     0.06200
Zr388      Zr  0.76912224  0.68520070  0.71314498     2.17500
O389        O  0.72034277  0.65345167  0.69860099    -0.51200
O390        O  0.78696649  0.65767160  0.66343688    -0.74400
O391        O  0.72870963  0.71740867  0.68284721    -0.81200
O392        O  0.78592371  0.62625259  0.78481954    -0.83000
O393        O  0.74783086  0.76883557  0.67476880    -0.78600
O394        O  0.74933775  0.63820689  0.74482759    -0.90200
O395        O  0.84125277  0.66831706  0.65220067    -0.76200
O396        O  0.80721580  0.72024526  0.68502223    -0.85700
O397        O  0.82334004  0.66410951  0.72385825    -0.85400
O398        O  0.75857164  0.73860288  0.73526177    -0.72100
O399        O  0.77492499  0.68662821  0.77112937    -0.84300
Zr400      Zr  0.85777490  0.75552819  0.77645283     2.26400
Zr401      Zr  0.79790994  0.77344998  0.70750755     2.06300
Zr402      Zr  0.82977577  0.66686432  0.78185023     2.10000
Zr403      Zr  0.86140094  0.69989720  0.69690309     1.78800
O404        O  0.82359521  0.65089856  0.83890383    -0.93100
O405        O  0.88090090  0.72840956  0.64799716    -0.40900
O406        O  0.86797250  0.70237206  0.75447085    -0.77500
O407        O  0.85313141  0.75357392  0.71783905    -0.96200
O408        O  0.80346641  0.77586737  0.76561156    -0.89500
O409        O  0.82026710  0.71985670  0.80465643    -0.92300
C410        C  0.81331180  0.65536866  0.64545063     1.01400
C411        C  0.75909521  0.62074647  0.76905407     1.14300
C412        C  0.72589775  0.74641277  0.67131927     1.05100
O413        O  0.81081750  0.79024126  0.65171508    -0.94500
O414        O  0.83614715  0.81953338  0.71072260    -0.90200
O415        O  0.87289797  0.80695621  0.75029448    -0.83400
C416        C  0.86203454  0.82578444  0.72773355     1.11800
O417        O  0.70688099  0.72510542  0.79323149    -0.96500
Zr418      Zr  0.76576201  0.73967699  0.79266715     1.88900
O419        O  0.83922110  0.78221458  0.82682401    -0.73100
O420        O  0.76486979  0.82185600  0.72003085    -0.52400
O421        O  0.72962479  0.78745910  0.79103357    -0.97100
O422        O  0.75031042  0.71131848  0.84304041    -0.54300
O423        O  0.78344624  0.77596580  0.83419008    -0.73600
C424        C  0.81164146  0.78725765  0.84239994     0.98700
O425        O  0.90981033  0.77952693  0.79493275    -0.62500
O426        O  0.85640141  0.61525253  0.76739288    -0.57300
O427        O  0.90167725  0.72241100  0.80014390    -0.93900
O428        O  0.88454730  0.67021517  0.80667040    -0.92400
O429        O  0.89350204  0.64945466  0.69738686    -0.92700
O430        O  0.92110147  0.71030660  0.69848877    -0.91500
C431        C  0.90639791  0.69283508  0.80929509     1.17500
H432        H  0.82566526  0.64196651  0.71607586     0.33500
H433        H  0.86978886  0.76665033  0.70679195     0.44300
H434        H  0.82434193  0.71952380  0.82794145     0.37900
H435        H  0.73593171  0.74606379  0.73261568     0.34300
H436        H  0.89537678  0.71247767  0.63642443     0.26100
H437        H  0.76728032  0.83580891  0.70038055     0.32100
H438        H  0.74493949  0.80628565  0.78991898     0.38000
H439        H  0.90029262  0.64586636  0.67431870     0.32400
H440        H  0.88049508  0.61842993  0.77105585     0.31300
H441        H  0.83629775  0.63027035  0.84063940     0.33000
H442        H  0.76933247  0.71447152  0.85778301     0.32000
H443        H  0.92296337  0.73266688  0.70721131     0.36000
H444        H  0.92406818  0.78245963  0.77516473     0.28700
H445        H  0.71871806  0.65497338  0.67454834     0.32900
H446        H  0.69721171  0.73520211  0.81317981     0.35800
H447        H  0.84922361  0.59986221  0.78475604     0.28400
H448        H  0.90431392  0.80180727  0.80251085     0.41300
H449        H  0.83461309  0.78449726  0.64844767     0.31300
H450        H  0.86097286  0.73033590  0.63416916     0.38900
H451        H  0.75123015  0.68793525  0.83730082     0.30800
H452        H  0.74138330  0.81455311  0.71989386     0.30900
H453        H  0.70081823  0.66565311  0.70726573     0.31100
C454        C  0.52266505  0.17692946  0.38048622     0.03200
C455        C  0.55098305  0.18242006  0.36076790    -0.12900
C456        C  0.58234587  0.18596018  0.37490347     0.00700
C457        C  0.58537352  0.18366537  0.40895917    -0.11500
C458        C  0.55715498  0.17792465  0.42879858     0.03200
C459        C  0.52604982  0.17418340  0.41434499    -0.10900
H460        H  0.54851161  0.18531182  0.33460069     0.08800
H461        H  0.60956713  0.18652906  0.41996426     0.06300
H462        H  0.50422999  0.16949592  0.42958384     0.06200
Zr463      Zr  0.77064709  0.25454353  0.27991909     2.17500
O464        O  0.74448707  0.30044006  0.30838643    -0.51200
O465        O  0.71785814  0.23199820  0.29938245    -0.74400
O466        O  0.74540930  0.29566433  0.24455510    -0.81200
O467        O  0.82715433  0.23568286  0.35303442    -0.83000
O468        O  0.75839388  0.28676221  0.19117036    -0.78600
O469        O  0.78811926  0.27054449  0.33341017    -0.90200
O470        O  0.71438294  0.17980034  0.28258657    -0.76200
O471        O  0.75498118  0.22160461  0.23529995    -0.85700
O472        O  0.78090821  0.20022236  0.29847983    -0.85400
O473        O  0.80702786  0.27131999  0.23590301    -0.72100
O474        O  0.82856519  0.25014840  0.29295851    -0.84300
Zr475      Zr  0.85963456  0.17908798  0.21982238     2.26400
Zr476      Zr  0.79193647  0.23692165  0.19106294     2.06300
Zr477      Zr  0.83939426  0.19532571  0.30983603     2.10000
Zr478      Zr  0.76569466  0.16746713  0.25338803     1.78800
O479        O  0.89183171  0.20293260  0.33803176    -0.93100
O480        O  0.72319059  0.15883492  0.21249994    -0.40900
O481        O  0.82394965  0.16262913  0.26452528    -0.77500
O482        O  0.80077398  0.18164255  0.20815981    -0.96200
O483        O  0.85004423  0.23362172  0.20336393    -0.89500
O484        O  0.87563752  0.21110884  0.26520105    -0.92300
C485        C  0.70270982  0.20462067  0.29780184     1.01400
C486        C  0.80781997  0.26080233  0.35572294     1.14300
C487        C  0.74471400  0.30362749  0.21419315     1.05100
O488        O  0.74099675  0.22455792  0.16206698    -0.94500
O489        O  0.80926084  0.20260537  0.14486861    -0.90200
O490        O  0.84550638  0.16509385  0.16446899    -0.83400
C491        C  0.82752828  0.17689846  0.14171454     1.11800
O492        O  0.86005606  0.31899088  0.27544517    -0.96500
Zr493      Zr  0.86437910  0.26595314  0.24916932     1.88900
O494        O  0.91048391  0.20555438  0.19862469    -0.73100
O495        O  0.81477821  0.27242275  0.14863087    -0.52400
O496        O  0.86993512  0.30951300  0.20887764    -0.97100
O497        O  0.90871621  0.27342225  0.28844627    -0.54300
O498        O  0.91384552  0.25703127  0.21768551    -0.73600
C499        C  0.92478948  0.23344377  0.20043973     0.98700
O500        O  0.89545553  0.13595076  0.19799560    -0.62500
O501        O  0.81774575  0.16251333  0.35498297    -0.57300
O502        O  0.87777374  0.13294343  0.25264997    -0.93900
O503        O  0.86609126  0.14073931  0.30641952    -0.92400
O504        O  0.75665460  0.12362188  0.29264936    -0.92700
O505        O  0.77094013  0.11315360  0.23022102    -0.91500
C506        C  0.87793508  0.12341914  0.28255851     1.17500
H507        H  0.76797592  0.19516918  0.31792210     0.33500
H508        H  0.79359820  0.16628093  0.19200615     0.44300
H509        H  0.89885896  0.20749551  0.27009610     0.37900
H510        H  0.80469599  0.29411863  0.23074820     0.34300
H511        H  0.70797639  0.14252295  0.22242437     0.26100
H512        H  0.79626096  0.27566397  0.13325241     0.32100
H513        H  0.87220427  0.29829894  0.18758436     0.38000
H514        H  0.75443548  0.13455486  0.31408780     0.32400
H515        H  0.83704882  0.15942044  0.36944940     0.31300
H516        H  0.90746665  0.18694012  0.32812899     0.33000
H517        H  0.92610218  0.25719452  0.28261620     0.32000
H518        H  0.79523058  0.10998308  0.22681751     0.36000
H519        H  0.88032147  0.11890892  0.18985463     0.28700
H520        H  0.72084383  0.30082098  0.30178589     0.32900
H521        H  0.87981908  0.33133659  0.26769294     0.35800
H522        H  0.80250171  0.17711056  0.36735893     0.28400
H523        H  0.90645094  0.14503563  0.17818405     0.41300
H524        H  0.74766644  0.22369801  0.13870574     0.31300
H525        H  0.70995920  0.17922079  0.21228191     0.38900
H526        H  0.89910274  0.26550745  0.30941345     0.30800
H527        H  0.81735282  0.29381108  0.15935172     0.30900
H528        H  0.75445459  0.32050245  0.29904306     0.31100
C529        C  0.52037121  0.76154142  0.37661760     0.03200
C530        C  0.52603471  0.76723225  0.40956754    -0.12900
C531        C  0.55828862  0.76543585  0.42193162     0.00700
C532        C  0.58501883  0.75731012  0.40063278    -0.11500
C533        C  0.57935184  0.75103523  0.36730881     0.03200
C534        C  0.54690377  0.75379039  0.35549681    -0.10900
H535        H  0.50500847  0.77235944  0.42573201     0.08800
H536        H  0.61014896  0.75622666  0.40983375     0.06300
H537        H  0.54196205  0.74844325  0.33012518     0.06200
C538        C  0.68810206  0.43213579  0.19198490     0.03200
C539        C  0.70711944  0.46105323  0.19209460    -0.12900
C540        C  0.69133996  0.49173974  0.18891093     0.00700
C541        C  0.65661115  0.49306730  0.18568571    -0.11500
C542        C  0.63739359  0.46466871  0.18589146     0.03200
C543        C  0.65334420  0.43436756  0.18852201    -0.10900
H544        H  0.73382863  0.45973763  0.19536996     0.08800
H545        H  0.64429027  0.51653138  0.18404328     0.06300
H546        H  0.63849136  0.41238980  0.18907924     0.06200
Zr547      Zr  0.84991059  0.75336101  0.21087719     2.17500
O548        O  0.88149339  0.79421869  0.17997830    -0.51200
O549        O  0.90254020  0.72999197  0.19066200    -0.74400
O550        O  0.87049800  0.79842203  0.24424091    -0.81200
O551        O  0.79424138  0.73216221  0.13704744    -0.83000
O552        O  0.86191420  0.78740281  0.29805009    -0.78600
O553        O  0.82816239  0.77028994  0.15875389    -0.90200
O554        O  0.90793566  0.67839629  0.20936940    -0.76200
O555        O  0.86698412  0.72095703  0.25595942    -0.85700
O556        O  0.84189968  0.69850848  0.19346726    -0.85400
O557        O  0.81246049  0.76935655  0.25474916    -0.72100
O558        O  0.79212098  0.74731131  0.19797608    -0.84300
Zr559      Zr  0.76429971  0.67514007  0.27031442     2.26400
Zr560      Zr  0.82964848  0.73620760  0.29980990     2.06300
Zr561      Zr  0.78403826  0.69247462  0.18089390     2.10000
Zr562      Zr  0.85770780  0.66609205  0.23910631     1.78800
O563        O  0.73211771  0.69876623  0.15137427    -0.93100
O564        O  0.90181054  0.65548485  0.27799942    -0.40900
O565        O  0.80044945  0.65975494  0.22616122    -0.77500
O566        O  0.82231009  0.68024044  0.28412882    -0.96200
O567        O  0.77166013  0.72999074  0.28720513    -0.89500
O568        O  0.74682357  0.70686452  0.22506829    -0.86700
C569        C  0.91825798  0.70278220  0.19273456     1.01400
C570        C  0.81027816  0.75926300  0.13559951     1.14300
C571        C  0.87250906  0.80596444  0.27462458     1.05100
O572        O  0.88069692  0.72186312  0.32796207    -0.94500
O573        O  0.80955148  0.70465692  0.34692464    -0.90200
O574        O  0.77339652  0.66730709  0.32759534    -0.83400
C575        C  0.78994740  0.68011535  0.35059152     1.11800
O576        O  0.76148448  0.81571662  0.21740503    -0.96500
Zr577      Zr  0.75519357  0.76174640  0.24159128     1.88900
O578        O  0.70922324  0.69512357  0.28653542    -0.73100
O579        O  0.81051354  0.77153750  0.34400162    -0.52400
O580        O  0.74398736  0.80330061  0.28265004    -0.97100
O581        O  0.71360689  0.77220128  0.20007208    -0.54300
O582        O  0.70389596  0.74741138  0.26954554    -0.73600
C583        C  0.69311089  0.72208517  0.28456980     0.98700
O584        O  0.73917002  0.62501286  0.29117089    -0.62500
O585        O  0.81058113  0.66165892  0.13683009    -0.57300
O586        O  0.74951617  0.62805858  0.23775805    -0.93900
O587        O  0.75713847  0.63876719  0.18372992    -0.92400
O588        O  0.86542847  0.62279546  0.19917818    -0.92700
O589        O  0.85300431  0.61190127  0.26303999    -0.91500
C590        C  0.74811656  0.61997666  0.20753789     1.17500
H591        H  0.85497175  0.69339851  0.17410345     0.33500
H592        H  0.82868804  0.66550674  0.30148430     0.44300
H593        H  0.72383424  0.70250882  0.21996869     0.37900
H594        H  0.81335727  0.79231254  0.25983059     0.34300
H595        H  0.91532462  0.63782362  0.26796740     0.26100
H596        H  0.83053825  0.77535228  0.35726744     0.32100
H597        H  0.75048238  0.79310589  0.30354742     0.38000
H598        H  0.88809212  0.61416123  0.20313205     0.32400
H599        H  0.81909805  0.64169119  0.14747981     0.31300
H600        H  0.71522037  0.68646416  0.16419059     0.33000
H601        H  0.69786992  0.75375459  0.20170365     0.32000
H602        H  0.82870886  0.60800170  0.26497541     0.36000
H603        H  0.75663916  0.61363721  0.30372109     0.28700
H604        H  0.90345114  0.79589474  0.19054840     0.32900
H605        H  0.74054183  0.82749679  0.22275937     0.35800
H606        H  0.79189879  0.65408382  0.12333951     0.28400
H607        H  0.72220628  0.63188624  0.30758382     0.41300
H608        H  0.87501643  0.72409695  0.35147183     0.31300
H609        H  0.91636188  0.67486615  0.27667564     0.38900
H610        H  0.72565348  0.76877869  0.17905612     0.30800
H611        H  0.80591362  0.79278246  0.33349372     0.30900
H612        H  0.87032214  0.81535105  0.18423553     0.31100
Zr613      Zr  0.25791041  0.74817237  0.21911576     2.17500
O614        O  0.19831152  0.75733884  0.22773185    -0.51200
O615        O  0.26390255  0.77700562  0.16760534    -0.74400
O616        O  0.24602842  0.80281073  0.23719231    -0.81200
O617        O  0.23951606  0.66603815  0.18194115    -0.83000
O618        O  0.28523253  0.81784229  0.27335539    -0.78600
O619        O  0.22108235  0.71848591  0.18477726    -0.90200
O620        O  0.31728857  0.77053709  0.14983680    -0.76200
O621        O  0.31080198  0.77354270  0.22256072    -0.85700
O622        O  0.29454376  0.71562758  0.18664962    -0.85400
O623        O  0.26941166  0.74812079  0.27636968    -0.72100
O624        O  0.25472857  0.69453303  0.24219941    -0.84300
Zr625      Zr  0.35808903  0.68638834  0.27110285     2.26400
Zr626      Zr  0.32343372  0.77217893  0.27937591     2.06300
Zr627      Zr  0.29261300  0.66247668  0.21001236     2.10000
Zr628      Zr  0.34760976  0.74033873  0.19098059     1.78800
O629        O  0.26303261  0.61197709  0.22151400    -0.93100
O630        O  0.37832794  0.79126988  0.18748982    -0.40900
O631        O  0.34655665  0.68658864  0.21387615    -0.77500
O632        O  0.36156930  0.73981967  0.24755950    -0.96200
O633        O  0.32135939  0.71908418  0.30323831    -0.89500
O634        O  0.30503495  0.66117582  0.26695833    -0.92300
C635        C  0.28742023  0.78120835  0.14643127     1.01400
C636        C  0.21880188  0.68897807  0.17524955     1.14300
C637        C  0.25863143  0.82315639  0.25707092     1.05100
O638        O  0.35744478  0.82025578  0.26926251    -0.94500
O639        O  0.37499542  0.76904989  0.30913890    -0.90200
O640        O  0.39183701  0.71606146  0.30890828    -0.83400
C641        C  0.39471727  0.74590413  0.31729420     1.11800
O642        O  0.20849988  0.70442527  0.30365948    -0.96500
Zr643      Zr  0.26831964  0.69420517  0.29894697     1.88900
O644        O  0.35172240  0.65634565  0.32188635    -0.73100
O645        O  0.30806810  0.78869895  0.33472782    -0.52400
O646        O  0.25334792  0.72096889  0.35019179    -0.97100
O647        O  0.23865239  0.64278607  0.30473701    -0.54300
O648        O  0.29918604  0.66544066  0.34098471    -0.73600
C649        C  0.32869785  0.65356162  0.34381635     0.98700
O650        O  0.41779757  0.67715263  0.26218825    -0.62500
O651        O  0.30308933  0.64748922  0.15323781    -0.57300
O652        O  0.37227039  0.63319728  0.25021490    -0.93900
O653        O  0.33559871  0.62039059  0.21070051    -0.92400
O654        O  0.36091481  0.71278091  0.13981724    -0.92700
O655        O  0.40727843  0.73341752  0.18138024    -0.91500
C656        C  0.36178404  0.61464047  0.22750084     1.17500
H657        H  0.28763557  0.71476713  0.16419892     0.33500
H658        H  0.38396656  0.74808874  0.24945031     0.44300
H659        H  0.30557582  0.63905482  0.27498538     0.37900
H660        H  0.25314642  0.76128521  0.28801329     0.34300
H661        H  0.38175940  0.79508081  0.16378589     0.26100
H662        H  0.31696547  0.81102596  0.33683542     0.32100
H663        H  0.27481653  0.72807315  0.35931829     0.38000
H664        H  0.36857953  0.73031003  0.12486255     0.32400
H665        H  0.32767404  0.64683660  0.15079470     0.31300
H666        H  0.26434586  0.59965020  0.20079104     0.33000
H667        H  0.25580853  0.62653419  0.31067800     0.32000
H668        H  0.41406058  0.71654850  0.19727266     0.36000
H669        H  0.42022710  0.67024225  0.23912706     0.28700
H670        H  0.19259284  0.77624634  0.21382742     0.32900
H671        H  0.20101814  0.69327345  0.32393859     0.35800
H672        H  0.29612353  0.62445555  0.15178229     0.28400
H673        H  0.42818324  0.69897227  0.26229608     0.41300
H674        H  0.35759093  0.83187377  0.29040959     0.31300
H675        H  0.36210688  0.80821616  0.19437300     0.38900
H676        H  0.23245052  0.63698832  0.28219593     0.30800
H677        H  0.28356386  0.79161099  0.33450682     0.30900
H678        H  0.19581816  0.76523969  0.25046666     0.31100
Zr679      Zr  0.35677006  0.25522771  0.28048398     2.17500
O680        O  0.41665360  0.26518725  0.28331989    -0.51200
O681        O  0.34892266  0.28547269  0.33111738    -0.74400
O682        O  0.37385248  0.30629063  0.25568436    -0.81200
O683        O  0.37563353  0.17004909  0.31316921    -0.83000
O684        O  0.33370756  0.32284117  0.22103327    -0.78600
O685        O  0.39347172  0.22257030  0.31261480    -0.90200
O686        O  0.29653854  0.27679033  0.35048957    -0.76200
O687        O  0.30418526  0.28157882  0.27694066    -0.85700
O688        O  0.31965293  0.22267624  0.31243701    -0.85400
O689        O  0.34540715  0.25486967  0.22307528    -0.72100
O690        O  0.35942405  0.20166157  0.25701003    -0.84300
Zr691      Zr  0.25532072  0.19532169  0.22765907     2.26400
Zr692      Zr  0.29168633  0.28033880  0.21991411     2.06300
Zr693      Zr  0.32085581  0.16966024  0.28850703     2.10000
Zr694      Zr  0.26682422  0.24833955  0.30810231     1.78800
O695        O  0.34832588  0.11875125  0.27382582    -0.93100
O696        O  0.23771627  0.30031826  0.31259253    -0.40900
O697        O  0.26701263  0.19471926  0.28499791    -0.77500
O698        O  0.25282526  0.24860806  0.25140416    -0.96200
O699        O  0.29300828  0.22732698  0.19603925    -0.89500
O700        O  0.30810585  0.16919356  0.23179571    -0.92300
C701        C  0.32599819  0.28838700  0.35318276     1.01400
C702        C  0.39636640  0.19254614  0.32029940     1.14300
C703        C  0.36192582  0.32642405  0.23490103     1.05100
O704        O  0.25898231  0.32699467  0.23821278    -0.94500
O705        O  0.24150377  0.27881855  0.18727783    -0.90200
O706        O  0.22217659  0.22686848  0.18998377    -0.83400
C707        C  0.22078511  0.25638724  0.17974181     1.11800
O708        O  0.40448551  0.21437511  0.19105129    -0.96500
Zr709      Zr  0.34574750  0.20143991  0.20027497     1.88900
O710        O  0.26201814  0.16562668  0.17678056    -0.73100
O711        O  0.30242333  0.30187571  0.16521728    -0.52400
O712        O  0.35532537  0.22857131  0.14798135    -0.97100
O713        O  0.37864604  0.15151341  0.19617217    -0.54300
O714        O  0.31597202  0.16993043  0.16003863    -0.73600
C715        C  0.28591742  0.16015828  0.15627264     0.98700
O716        O  0.19524398  0.18698461  0.23413443    -0.62500
O717        O  0.31213461  0.15209707  0.34492924    -0.57300
O718        O  0.24191828  0.14126514  0.24753880    -0.93900
O719        O  0.27863941  0.12717882  0.28677896    -0.92400
O720        O  0.25394245  0.22089189  0.35955222    -0.92700
O721        O  0.20710881  0.24097034  0.31661253    -0.91500
C722        C  0.25283533  0.12168049  0.26941591     1.17500
H723        H  0.32660067  0.22152362  0.33489298     0.33500
H724        H  0.23064495  0.25755604  0.24930664     0.44300
H725        H  0.30732845  0.14717358  0.22379580     0.37900
H726        H  0.36194044  0.26700567  0.21076614     0.34300
H727        H  0.23045903  0.30159245  0.33578424     0.26100
H728        H  0.29759811  0.32547993  0.16677755     0.32100
H729        H  0.33323062  0.22937341  0.13758723     0.38000
H730        H  0.24923772  0.19809978  0.35340506     0.32400
H731        H  0.32350232  0.13070159  0.34618166     0.31300
H732        H  0.36806693  0.12541645  0.26066742     0.33000
H733        H  0.38487779  0.14980334  0.17274543     0.32000
H734        H  0.20038406  0.22623916  0.29882628     0.36000
H735        H  0.19198526  0.17660992  0.25579295     0.28700
H736        H  0.41907636  0.28624866  0.29473149     0.32900
H737        H  0.41087295  0.20425199  0.16994127     0.35800
H738        H  0.32600005  0.16672254  0.35820072     0.28400
H739        H  0.18554773  0.20899723  0.23710689     0.41300
H740        H  0.25699860  0.34089734  0.21855005     0.31300
H741        H  0.25541215  0.31694673  0.31039791     0.38900
H742        H  0.36248536  0.13367239  0.19977452     0.30800
H743        H  0.32688993  0.30041909  0.16189344     0.30900
H744        H  0.42445766  0.26923387  0.26061087     0.31100
C745        C  0.70538500  0.54764481  0.16778103    -0.21200
C746        C  0.70979506  0.52304506  0.19139757    -0.09300
C747        C  0.72823064  0.53024077  0.21931146     0.29600
C748        C  0.74095580  0.56158237  0.22390521    -0.21200
C749        C  0.73609082  0.58643130  0.20061653    -0.09300
C750        C  0.71871699  0.57888998  0.17205547     0.29600
F751        F  0.71319754  0.60203746  0.14903332    -0.19800
H752        H  0.69089703  0.54278625  0.14625455     0.18000
H753        H  0.75437077  0.56654134  0.24607774     0.18000
F754        F  0.73232157  0.50753583  0.24307489    -0.19800
C755        C  0.47704263  0.78157620  0.33909560    -0.21200
C756        C  0.48626633  0.76090378  0.36467284    -0.09300
C757        C  0.46373730  0.73767779  0.37694431     0.29600
C758        C  0.43276707  0.73418522  0.36259942    -0.21200
C759        C  0.42399288  0.75400543  0.33617714    -0.09300
C760        C  0.44594106  0.77825052  0.32488609     0.29600
F761        F  0.43850254  0.79670268  0.29840527    -0.19800
H762        H  0.49444744  0.79938572  0.32938934     0.18000
H763        H  0.41617391  0.71511286  0.37115302     0.18000
F764        F  0.47267468  0.71687094  0.40112867    -0.19800
C765        C  0.60986491  0.75548389  0.31358229    -0.21200
C766        C  0.60687526  0.74111831  0.34471041    -0.09300
C767        C  0.62997836  0.71699425  0.35368233     0.29600
C768        C  0.65674576  0.70909607  0.33281904    -0.21200
C769        C  0.66108724  0.72524173  0.30274966    -0.09300
C770        C  0.63668859  0.74770658  0.29278645     0.29600
F771        F  0.63921019  0.76274087  0.26327576    -0.19800
H772        H  0.59201451  0.77363362  0.30576741     0.18000
H773        H  0.67503661  0.69152378  0.34097262     0.18000
F774        F  0.62678562  0.70116712  0.38269634    -0.19800
C775        C  0.70303154  0.34736117  0.22630867    -0.21200
C776        C  0.72905862  0.33550626  0.20628441    -0.09300
C777        C  0.74230799  0.35607974  0.18169551     0.29600
C778        C  0.72970683  0.38783743  0.17757510    -0.21200
C779        C  0.70340662  0.39943625  0.19752587    -0.09300
C780        C  0.69029302  0.37876512  0.22200152     0.29600
F781        F  0.66553975  0.38925193  0.24240094    -0.19800
H782        H  0.69270471  0.33233251  0.24573162     0.18000
H783        H  0.74021278  0.40324889  0.15856527     0.18000
F784        F  0.76826787  0.34601848  0.16254593    -0.19800
C785        C  0.62126231  0.16903745  0.33030226    -0.21200
C786        C  0.61194540  0.19196525  0.35398282    -0.09300
C787        C  0.63133964  0.21999717  0.35789986     0.29600
C788        C  0.66013958  0.22457869  0.33873438    -0.21200
C789        C  0.67038473  0.20100201  0.31571511    -0.09300
C790        C  0.65035045  0.17316896  0.31159713     0.29600
F791        F  0.65902763  0.14950663  0.28999605    -0.19800
H792        H  0.60645403  0.14732776  0.32700709     0.18000
H793        H  0.67488935  0.24621068  0.34259315     0.18000
F794        F  0.62238097  0.24289359  0.38024441    -0.19800
C795        C  0.46477807  0.19800641  0.38070758    -0.21200
C796        C  0.48907798  0.17763557  0.36644894    -0.09300
C797        C  0.48133413  0.15969386  0.33837031     0.29600
C798        C  0.44985351  0.16274975  0.32453413    -0.21200
C799        C  0.42623529  0.18408207  0.33825761    -0.09300
C800        C  0.43368657  0.20143212  0.36661611     0.29600
F801        F  0.41120900  0.22251250  0.38001148    -0.19800
H802        H  0.47037092  0.21236123  0.40206823     0.18000
H803        H  0.44450494  0.14981904  0.30221564     0.18000
F804        F  0.50428253  0.13975532  0.32406828    -0.19800
C805        C  0.83153629  0.62523014  0.55980472    -0.21200
C806        C  0.80447724  0.60450069  0.55484300    -0.09300
C807        C  0.78100807  0.59946804  0.58008776     0.29600
C808        C  0.78433010  0.61565478  0.60976183    -0.21200
C809        C  0.81113946  0.63697205  0.61466384    -0.09300
C810        C  0.83499612  0.64134558  0.58938720     0.29600
F811        F  0.86095441  0.66213993  0.59258192    -0.19800
H812        H  0.84973816  0.62937246  0.54040925     0.18000
H813        H  0.76562798  0.61183357  0.62874355     0.18000
F814        F  0.75413405  0.58012995  0.57552298    -0.19800
C815        C  0.76575454  0.61838502  0.41508196    -0.21200
C816        C  0.79286976  0.62033648  0.43598778    -0.09300
C817        C  0.81698369  0.64468528  0.43082405     0.29600
C818        C  0.81463439  0.66581729  0.40420058    -0.21200
C819        C  0.78827857  0.66296896  0.38231476    -0.09300
C820        C  0.76317604  0.63963072  0.38866964     0.29600
F821        F  0.73641387  0.63675728  0.36904406    -0.19800
H822        H  0.74649270  0.60036362  0.41927623     0.18000
H823        H  0.83439092  0.68326271  0.39981558     0.18000
F824        F  0.84364705  0.64705592  0.45064317    -0.19800
C825        C  0.58386310  0.75346791  0.50991436    -0.21200
C826        C  0.56618076  0.77866958  0.52570916    -0.09300
C827        C  0.54719347  0.80033750  0.50698663     0.29600
C828        C  0.54569046  0.79651267  0.47315649    -0.21200
C829        C  0.56298030  0.77099028  0.45734443    -0.09300
C830        C  0.58229804  0.74956623  0.47609655     0.29600
F831        F  0.59835618  0.72393253  0.46204861    -0.19800
H832        H  0.59832038  0.73623013  0.52394700     0.18000
H833        H  0.53082620  0.81350957  0.45924193     0.18000
F834        F  0.53061303  0.82552294  0.52130480    -0.19800
C835        C  0.69276148  0.78052976  0.63225763    -0.21200
C836        C  0.69425649  0.75488219  0.65503600    -0.09300
C837        C  0.66463882  0.73830338  0.66351890     0.29600
C838        C  0.63451314  0.74710246  0.64950802    -0.21200
C839        C  0.63299542  0.77243596  0.62660743    -0.09300
C840        C  0.66246370  0.78904630  0.61783678     0.29600
F841        F  0.66187600  0.81372283  0.59572609    -0.19800
H842        H  0.71508176  0.79384008  0.62546481     0.18000
H843        H  0.61225808  0.73365700  0.65627699     0.18000
F844        F  0.66439507  0.71408764  0.68611352    -0.19800
C845        C  0.69067026  0.55657969  0.77243380    -0.21200
C846        C  0.70158895  0.53622636  0.79766254    -0.09300
C847        C  0.73032146  0.54478182  0.81476735     0.29600
C848        C  0.74821450  0.57277892  0.80600575    -0.21200
C849        C  0.73821157  0.59250673  0.77963441    -0.09300
C850        C  0.70876626  0.58417938  0.76323719     0.29600
F851        F  0.69785093  0.60178693  0.73746406    -0.19800
H852        H  0.66884029  0.55018470  0.75863492     0.18000
H853        H  0.77045962  0.57849217  0.81944077     0.18000
F854        F  0.74134918  0.52584224  0.83960761    -0.19800
C855        C  0.50702756  0.75668670  0.65980858    -0.21200
C856        C  0.50895638  0.78067216  0.63537013    -0.09300
C857        C  0.48063691  0.80002989  0.62942510     0.29600
C858        C  0.45047950  0.79393236  0.64616741    -0.21200
C859        C  0.44816810  0.76865600  0.66933734    -0.09300
C860        C  0.47720822  0.75089383  0.67679343     0.29600
F861        F  0.47691398  0.72776973  0.70052835    -0.19800
H862        H  0.52845986  0.74158849  0.66515430     0.18000
H863        H  0.42874346  0.80842421  0.64038078     0.18000
F864        F  0.48217204  0.82483937  0.60750446    -0.19800
C865        C  0.31195514  0.63183707  0.39903657    -0.21200
C866        C  0.33672639  0.63592040  0.37460312    -0.09300
C867        C  0.36912558  0.62381565  0.38056086     0.29600
C868        C  0.37615333  0.60800064  0.41000351    -0.21200
C869        C  0.35144740  0.60456221  0.43429327    -0.09300
C870        C  0.31926407  0.61655372  0.42863843     0.29600
F871        F  0.29487422  0.61338269  0.45178116    -0.19800
H872        H  0.28686122  0.64081042  0.39546942     0.18000
H873        H  0.40118866  0.59914023  0.41423218     0.18000
F874        F  0.39433436  0.62780001  0.35842262    -0.19800
C875        C  0.33260051  0.63226149  0.56001140    -0.21200
C876        C  0.36211700  0.61466499  0.55487433    -0.09300
C877        C  0.38687965  0.61542136  0.57880798     0.29600
C878        C  0.38145502  0.63271115  0.60795263    -0.21200
C879        C  0.35120350  0.64940419  0.61363292    -0.09300
C880        C  0.32713597  0.64951116  0.58878520     0.29600
F881        F  0.29793657  0.66606575  0.59210080    -0.19800
H882        H  0.31322991  0.63206771  0.54187886     0.18000
H883        H  0.40068426  0.63260465  0.62620963     0.18000
F884        F  0.41634570  0.59973343  0.57381658    -0.19800
C885        C  0.69939515  0.39949967  0.76005516    -0.21200
C886        C  0.70632434  0.41602884  0.78905804    -0.09300
C887        C  0.73312203  0.40550050  0.80809340     0.29600
C888        C  0.75229589  0.37851362  0.79840552    -0.21200
C889        C  0.74522836  0.36159839  0.76942415    -0.09300
C890        C  0.71867655  0.37275658  0.75014777     0.29600
F891        F  0.71146912  0.35816097  0.72145754    -0.19800
H892        H  0.67931479  0.40775665  0.74467670     0.18000
H893        H  0.77231260  0.37051591  0.81397997     0.18000
F894        F  0.74024205  0.42091218  0.83640465    -0.19800
C895        C  0.58223354  0.15446645  0.47906740    -0.21200
C896        C  0.55959121  0.17603568  0.46468969    -0.09300
C897        C  0.53799719  0.19447967  0.48476683     0.29600
C898        C  0.53837057  0.19052586  0.51860594    -0.21200
C899        C  0.56037430  0.16827313  0.53309302    -0.09300
C900        C  0.58264691  0.15050368  0.51297587     0.29600
F901        F  0.60409382  0.12856784  0.52596711    -0.19800
H902        H  0.59894368  0.13998040  0.46393907     0.18000
H903        H  0.52171006  0.20524103  0.53355510     0.18000
F904        F  0.51686156  0.21666248  0.47163585    -0.19800
C905        C  0.62501474  0.19712868  0.65947721    -0.21200
C906        C  0.62329464  0.17158595  0.63692328    -0.09300
C907        C  0.65222215  0.15337138  0.62972302     0.29600
C908        C  0.68234061  0.16092143  0.64478819    -0.21200
C909        C  0.68421688  0.18706269  0.66684822    -0.09300
C910        C  0.65504521  0.20489636  0.67423512     0.29600
F911        F  0.65528456  0.22955660  0.69617870    -0.19800
H912        H  0.60309755  0.21163628  0.66520275     0.18000
H913        H  0.70432999  0.14662499  0.63881379     0.18000
F914        F  0.65127083  0.12819814  0.60835339    -0.19800
C915        C  0.81676467  0.45677344  0.46191260    -0.21200
C916        C  0.79805836  0.43854894  0.48478142    -0.09300
C917        C  0.77527405  0.45493267  0.50552260     0.29600
C918        C  0.77312914  0.48882218  0.50492252    -0.21200
C919        C  0.79331566  0.50716291  0.48351700    -0.09300
C920        C  0.81440554  0.49078986  0.46115797     0.29600
F921        F  0.83433624  0.50764075  0.44007586    -0.19800
H922        H  0.83445446  0.44480048  0.44566107     0.18000
H923        H  0.75614637  0.50088652  0.52183235     0.18000
F924        F  0.75529427  0.43826327  0.52671640    -0.19800
C925        C  0.78498418  0.32588147  0.41749598    -0.21200
C926        C  0.81345941  0.32683815  0.43666174    -0.09300
C927        C  0.83929947  0.30419819  0.43082513     0.29600
C928        C  0.83714635  0.28197621  0.40504777    -0.21200
C929        C  0.80882258  0.28145228  0.38534069    -0.09300
C930        C  0.78226103  0.30309536  0.39260445     0.29600
F931        F  0.75317338  0.30188246  0.37620561    -0.19800
H932        H  0.76424772  0.34217873  0.42255936     0.18000
H933        H  0.85784197  0.26560942  0.40017282     0.18000
F934        F  0.86672389  0.30385581  0.44979610    -0.19800
C935        C  0.78402396  0.34310038  0.57669478    -0.21200
C936        C  0.81238173  0.34082491  0.55630585    -0.09300
C937        C  0.83955075  0.32191428  0.56608959     0.29600
C938        C  0.83803955  0.30477021  0.59539754    -0.21200
C939        C  0.80938607  0.30599689  0.61570456    -0.09300
C940        C  0.78235363  0.32579170  0.60618695     0.29600
F941        F  0.75427345  0.32829070  0.62496357    -0.19800
H942        H  0.76277735  0.35752557  0.56925579     0.18000
H943        H  0.85942899  0.29011220  0.60189176     0.18000
F944        F  0.86757446  0.31991249  0.54716207    -0.19800
C945        C  0.46636127  0.20096676  0.67881859    -0.21200
C946        C  0.43831018  0.18132108  0.67367108    -0.09300
C947        C  0.44127000  0.15489125  0.65193383     0.29600
C948        C  0.47153425  0.14904167  0.63524594    -0.21200
C949        C  0.49928550  0.16909776  0.64032860    -0.09300
C950        C  0.49637393  0.19506063  0.66241171     0.29600
F951        F  0.52218231  0.21570893  0.66716279    -0.19800
H952        H  0.46512725  0.22136058  0.69547905     0.18000
H953        H  0.47329940  0.12896495  0.61822018     0.18000
F954        F  0.41485320  0.13534130  0.64606316    -0.19800
C955        C  0.39552068  0.45342338  0.48162465    -0.21200
C956        C  0.37625514  0.43709564  0.50550880    -0.09300
C957        C  0.35767415  0.45570169  0.52825961     0.29600
C958        C  0.35779668  0.48964536  0.52647260    -0.21200
C959        C  0.37613886  0.50593129  0.50193859    -0.09300
C960        C  0.39542346  0.48744781  0.47971297     0.29600
F961        F  0.41411264  0.50220517  0.45608970    -0.19800
H962        H  0.41033396  0.43975375  0.46404695     0.18000
H963        H  0.34223946  0.50320062  0.54352488     0.18000
F964        F  0.33765063  0.44123685  0.55100727    -0.19800
C965        C  0.32186162  0.32049114  0.44045312    -0.21200
C966        C  0.35290722  0.33576532  0.44304808    -0.09300
C967        C  0.37469883  0.33610524  0.41590667     0.29600
C968        C  0.36570302  0.32088689  0.38682441    -0.21200
C969        C  0.33453331  0.30550845  0.38398375    -0.09300
C970        C  0.31253396  0.30572806  0.41127709     0.29600
F971        F  0.28212651  0.29143461  0.41013923    -0.19800
H972        H  0.30461602  0.32028312  0.46109096     0.18000
H973        H  0.38331593  0.32111296  0.36651009     0.18000
F974        F  0.40499269  0.35050949  0.41776924    -0.19800
C975        C  0.38081226  0.33539314  0.59148764    -0.21200
C976        C  0.35974646  0.33098513  0.56471953    -0.09300
C977        C  0.33212745  0.31019332  0.56845630     0.29600
C978        C  0.32576374  0.29445323  0.59814454    -0.21200
C979        C  0.34647327  0.29903268  0.62512466    -0.09300
C980        C  0.37441671  0.31953963  0.62136046     0.29600
F981        F  0.39507287  0.32504083  0.64665811    -0.19800
H982        H  0.40224759  0.35124279  0.58930787     0.18000
H983        H  0.30416464  0.27878609  0.60003327     0.18000
F984        F  0.31023221  0.30611267  0.54388300    -0.19800
C985        C  0.54608679  0.44885795  0.16831286    -0.21200
C986        C  0.53009588  0.47006313  0.19050503    -0.09300
C987        C  0.54970890  0.49036639  0.20999657     0.29600
C988        C  0.58444505  0.48859863  0.20803317    -0.21200
C989        C  0.60045414  0.46698114  0.18633461    -0.09300
C990        C  0.58093472  0.44744286  0.16603623     0.29600
F991        F  0.59552745  0.42742540  0.14366351    -0.19800
H992        H  0.53152435  0.43340747  0.15265188     0.18000
H993        H  0.59891730  0.50368006  0.22413394     0.18000
F994        F  0.53539978  0.51098032  0.23198991    -0.19800
C995        C  0.41468021  0.35836599  0.23918539    -0.21200
C996        C  0.38276827  0.35489042  0.22575687    -0.09300
C997        C  0.37170018  0.37845880  0.20329489     0.29600
C998        C  0.39191057  0.40485986  0.19504023    -0.21200
C999        C  0.42318051  0.40887941  0.20939559    -0.09300
C1000       C  0.43459871  0.38516405  0.23135818     0.29600
F1001       F  0.46409231  0.38873395  0.24670723    -0.19800
H1002       H  0.42410696  0.34066910  0.25640779     0.18000
H1003       H  0.38266905  0.42280631  0.17795177     0.18000
F1004       F  0.34109329  0.37665173  0.18979312    -0.19800
C1005       C  0.39063318  0.53358486  0.19205384    -0.21200
C1006       C  0.42136379  0.52928214  0.20751124    -0.09300
C1007       C  0.43222418  0.55300403  0.22943203     0.29600
C1008       C  0.41278599  0.58059936  0.23552665    -0.21200
C1009       C  0.38187336  0.58504163  0.22022703    -0.09300
C1010       C  0.37102065  0.56114661  0.19823045     0.29600
F1011       F  0.34132204  0.56397695  0.18304295    -0.19800
H1012       H  0.38167805  0.51536017  0.17529945     0.18000
H1013       H  0.42195017  0.59836454  0.25264048     0.18000
F1014       F  0.46087819  0.54880716  0.24614983    -0.19800
C1015       C  0.54246780  0.45459826  0.82497107    -0.21200
C1016       C  0.52593856  0.47296760  0.80108436    -0.09300
C1017       C  0.54503187  0.49049013  0.77792779     0.29600
C1018       C  0.57978990  0.49055711  0.77947616    -0.21200
C1019       C  0.59629080  0.47254949  0.80354241    -0.09300
C1020       C  0.57737218  0.45417037  0.82609929     0.29600
F1021       F  0.59259154  0.43641491  0.84959286    -0.19800
H1022       H  0.52829331  0.44081545  0.84296347     0.18000
H1023       H  0.59397725  0.50426202  0.76142195     0.18000
F1024       F  0.53015713  0.50665031  0.75309958    -0.19800
C1025       C  0.40960324  0.36413639  0.76165769    -0.21200
C1026       C  0.38177388  0.35584716  0.78127327    -0.09300
C1027       C  0.37229456  0.37685439  0.80704733     0.29600
C1028       C  0.39026510  0.40542038  0.81268161    -0.21200
C1029       C  0.41806213  0.41335915  0.79304313    -0.09300
C1030       C  0.42754839  0.39247510  0.76744319     0.29600
F1031       F  0.45355838  0.40006637  0.74724801    -0.19800
H1032       H  0.41744233  0.34881900  0.74145250     0.18000
H1033       H  0.38256330  0.42135154  0.83245633     0.18000
F1034       F  0.34592865  0.36980828  0.82699174    -0.19800
C1035       C  0.37849907  0.57580060  0.79938099    -0.21200
C1036       C  0.38418208  0.59106289  0.76898440    -0.09300
C1037       C  0.40795697  0.57748983  0.74720970     0.29600
C1038       C  0.42524905  0.54917944  0.75571067    -0.21200
C1039       C  0.41925708  0.53395376  0.78591793    -0.09300
C1040       C  0.39591630  0.54753964  0.80784446     0.29600
F1041       F  0.39051291  0.53386455  0.83766412    -0.19800
H1042       H  0.36093653  0.58607983  0.81690813     0.18000
H1043       H  0.44307717  0.53879891  0.73849155     0.18000
F1044       F  0.41409800  0.59112164  0.71748620    -0.19800
C1045       C  0.97627628  0.26561043  0.19002846    -0.21200
C1046       C  0.95511735  0.24016898  0.18061008    -0.09300
C1047       C  0.96127892  0.22447435  0.15061953     0.29600
C1048       C  0.98799857  0.23431923  0.13056061    -0.21200
C1049       C  0.00903151  0.25973362  0.14015801    -0.09300
C1050       C  0.00291092  0.27531833  0.17009499     0.29600
F1051       F  0.02212448  0.30058836  0.17964988    -0.19800
H1052       H  0.97189478  0.27846661  0.21276191     0.18000
H1053       H  0.99241404  0.22196213  0.10756029     0.18000
F1054       F  0.94081575  0.20060532  0.14006793    -0.19800
C1055       C  0.18107874  0.24152721  0.13637611    -0.21200
C1056       C  0.19244241  0.26468701  0.15872667    -0.09300
C1057       C  0.17402634  0.29356792  0.16347866     0.29600
C1058       C  0.14341995  0.29781111  0.14799389    -0.21200
C1059       C  0.13155049  0.27390964  0.12679370    -0.09300
C1060       C  0.15112049  0.24628310  0.12016014     0.29600
F1061       F  0.14039862  0.22314880  0.09923363    -0.19800
H1062       H  0.19501564  0.21924797  0.13216595     0.18000
H1063       H  0.12860167  0.31935605  0.15307276     0.18000
F1064       F  0.18444761  0.31659929  0.18465990    -0.19800
C1065       C  0.99794499  0.69744956  0.83132844    -0.21200
C1066       C  0.00213005  0.66903204  0.84977294    -0.09300
C1067       C  0.97511512  0.64760292  0.85381277     0.29600
C1068       C  0.94415929  0.65513415  0.84024902    -0.21200
C1069       C  0.93952474  0.68434518  0.82279801    -0.09300
C1070       C  0.96710179  0.70519607  0.81807622     0.29600
F1071       F  0.96451326  0.73324262  0.80072645    -0.19800
H1072       H  0.01838936  0.71438809  0.82817876     0.18000
H1073       H  0.92365038  0.63839558  0.84398595     0.18000
F1074       F  0.97864971  0.61954870  0.87103202    -0.19800
C1075       C  0.14333620  0.70288909  0.86106680    -0.21200
C1076       C  0.12668129  0.67410881  0.85308504    -0.09300
C1077       C  0.14197943  0.65191910  0.83154786     0.29600
C1078       C  0.17368733  0.65857354  0.81823892    -0.21200
C1079       C  0.19013679  0.68772337  0.82580652    -0.09300
C1080       C  0.17457081  0.70986191  0.84738081     0.29600
F1081       F  0.18972070  0.73812264  0.85555324    -0.19800
H1082       H  0.13194700  0.72011002  0.87789115     0.18000
H1083       H  0.18503570  0.64136440  0.80140304     0.18000
F1084       F  0.12650612  0.62369453  0.82391400    -0.19800
C1085       C  0.19282544  0.88948577  0.25201646    -0.21200
C1086       C  0.20336338  0.91115922  0.27600323    -0.09300
C1087       C  0.23297739  0.90463875  0.29274225     0.29600
C1088       C  0.25117522  0.87630792  0.28607965    -0.21200
C1089       C  0.24044142  0.85421960  0.26230835    -0.09300
C1090       C  0.21114485  0.86143943  0.24496583     0.29600
F1091       F  0.19988047  0.84152144  0.22121052    -0.19800
H1092       H  0.17045546  0.89452139  0.23838354     0.18000
H1093       H  0.27346107  0.87151327  0.29990121     0.18000
F1094       F  0.24389092  0.92525008  0.31606575    -0.19800
C1095       C  0.22840672  0.03658887  0.29814107    -0.21200
C1096       C  0.19823922  0.03190766  0.28184058    -0.09300
C1097       C  0.18596808  0.05705535  0.26200721     0.29600
C1098       C  0.20367208  0.08611871  0.25853672    -0.21200
C1099       C  0.23410678  0.09082529  0.27456525    -0.09300
C1100       C  0.24620017  0.06563513  0.29466772     0.29600
F1101       F  0.27543654  0.06862647  0.31058587    -0.19800
H1102       H  0.23833657  0.01754598  0.31358730     0.18000
H1103       H  0.19357201  0.10485664  0.24284491     0.18000
F1104       F  0.15760381  0.05310761  0.24485179    -0.19800
C1105       C  0.88810668  0.90867402  0.69373610    -0.21200
C1106       C  0.91901772  0.91345879  0.70871721    -0.09300
C1107       C  0.93125408  0.88890545  0.72939356     0.29600
C1108       C  0.91268166  0.86064962  0.73523002    -0.21200
C1109       C  0.88145917  0.85599442  0.72064097    -0.09300
C1110       C  0.86960401  0.88030612  0.69938844     0.29600
F1111       F  0.83998191  0.87700090  0.68424567    -0.19800
H1112       H  0.87816953  0.92705148  0.67752079     0.18000
H1113       H  0.92282968  0.84244974  0.75149597     0.18000
F1114       F  0.96052188  0.89267471  0.74510399    -0.19800
C1115       C  0.92880752  0.05858151  0.73018213    -0.21200
C1116       C  0.91671960  0.03499471  0.70880394    -0.09300
C1117       C  0.88580805  0.04031999  0.69383691     0.29600
C1118       C  0.86699634  0.06819667  0.70115210    -0.21200
C1119       C  0.87871644  0.09148962  0.72326593    -0.09300
C1120       C  0.91029635  0.08651971  0.73726744     0.29600
F1121       F  0.92352945  0.10837274  0.75809308    -0.19800
H1122       H  0.95240123  0.05501946  0.74220322     0.18000
H1123       H  0.84313663  0.07141038  0.68955177     0.18000
F1124       F  0.87390714  0.01875517  0.67189599    -0.19800
C1125       C  0.28899538  0.12931211  0.94431246    -0.21200
C1126       C  0.26003238  0.11042205  0.94670296    -0.09300
C1127       C  0.23919477  0.10817762  0.91950480     0.29600
C1128       C  0.24748953  0.12460662  0.89046950    -0.21200
C1129       C  0.27674573  0.14338127  0.88802425    -0.09300
C1130       C  0.29724918  0.14574605  0.91554104     0.29600
F1131       F  0.32516522  0.16430108  0.91504191    -0.19800
H1132       H  0.30560340  0.13114344  0.96481803     0.18000
H1133       H  0.23109095  0.12244777  0.86984280     0.18000
F1134       F  0.21060395  0.09062968  0.92117382    -0.19800
C1135       C  0.24712165  0.12599235  0.12322488    -0.21200
C1136       C  0.27808799  0.14175038  0.12609850    -0.09300
C1137       C  0.30078599  0.14048209  0.09944066     0.29600
C1138       C  0.29247241  0.12410554  0.07086308    -0.21200
C1139       C  0.26159252  0.10850211  0.06811197    -0.09300
C1140       C  0.23898333  0.10940849  0.09461380     0.29600
F1141       F  0.20864577  0.09515066  0.09245690    -0.19800
H1142       H  0.22900591  0.12659656  0.14310720     0.18000
H1143       H  0.31027963  0.12358702  0.05069318     0.18000
F1144       F  0.33077598  0.15560481  0.10049853    -0.19800
C1145       C  0.83582111  0.81861999  0.92494438    -0.21200
C1146       C  0.80784385  0.83761875  0.93320979    -0.09300
C1147       C  0.78222733  0.84176949  0.91071918     0.29600
C1148       C  0.78414629  0.82607926  0.88061807    -0.21200
C1149       C  0.81191093  0.80657928  0.87244276    -0.09300
C1150       C  0.83803668  0.80334433  0.89461508     0.29600
F1151       F  0.86470178  0.78396968  0.88773989    -0.19800
H1152       H  0.85572353  0.81532077  0.94222734     0.18000
H1153       H  0.76368169  0.82872208  0.86385485     0.18000
F1154       F  0.75486434  0.85989297  0.91843067    -0.19800
C1155       C  0.83275684  0.80400541  0.10086745    -0.21200
C1156       C  0.80802550  0.78027254  0.10626819    -0.09300
C1157       C  0.78111282  0.77866324  0.08469411     0.29600
C1158       C  0.77946326  0.80025603  0.05818628    -0.21200
C1159       C  0.80414521  0.82406957  0.05329174    -0.09300
C1160       C  0.83078265  0.82576117  0.07486969     0.29600
F1161       F  0.85547281  0.84788707  0.07025814    -0.19800
H1162       H  0.85390205  0.80581372  0.11685200     0.18000
H1163       H  0.75873192  0.79869014  0.04164730     0.18000
F1164       F  0.75599237  0.75708805  0.08971280    -0.19800
C1165       C  0.03632892  0.30997775  0.98174674    -0.21200
C1166       C  0.05710967  0.29049881  0.96186771    -0.09300
C1167       C  0.07794622  0.26725075  0.97646028     0.29600
C1168       C  0.07903753  0.26453335  0.01025590    -0.21200
C1169       C  0.05904366  0.28447433  0.03024422    -0.09300
C1170       C  0.03707517  0.30687376  0.01580535     0.29600
F1171       F  0.01696624  0.32610952  0.03453222    -0.19800
H1172       H  0.01971195  0.32764455  0.97087252     0.18000
H1173       H  0.09534680  0.24646079  0.02093064     0.18000
F1174       F  0.09648214  0.24634517  0.95800286    -0.19800
C1175       C  0.93375163  0.28750734  0.85182004    -0.21200
C1176       C  0.93122408  0.25897653  0.83315779    -0.09300
C1177       C  0.95983514  0.23930038  0.82872207     0.29600
C1178       C  0.99012906  0.24829459  0.84229204    -0.21200
C1179       C  0.99259911  0.27678928  0.86080952    -0.09300
C1180       C  0.96404178  0.29622036  0.86578504     0.29600
F1181       F  0.96559082  0.32391906  0.88366441    -0.19800
H1182       H  0.91223036  0.30311334  0.85563786     0.18000
H1183       H  0.01170687  0.23271236  0.83863495     0.18000
F1184       F  0.95898361  0.21182040  0.81048113    -0.19800
C1185       C  0.12102882  0.25551014  0.83556318    -0.21200
C1186       C  0.11760799  0.28289269  0.85569559    -0.09300
C1187       C  0.14582219  0.30243718  0.86096204     0.29600
C1188       C  0.17690068  0.29398200  0.84712646    -0.21200
C1189       C  0.18055605  0.26576910  0.82799350    -0.09300
C1190       C  0.15192429  0.24700771  0.82185877     0.29600
F1191       F  0.15352390  0.22026937  0.80257901    -0.19800
H1192       H  0.09989647  0.23983523  0.83131718     0.18000
H1193       H  0.19827510  0.30910608  0.85206846     0.18000
F1194       F  0.14341358  0.32956322  0.87970132    -0.19800
C1195       C  0.08094207  0.69030414  0.00593235    -0.21200
C1196       C  0.06033564  0.66958321  0.02444253    -0.09300
C1197       C  0.03915846  0.64786926  0.00844164     0.29600
C1198       C  0.03942343  0.64638801  0.97434029    -0.21200
C1199       C  0.06074520  0.66654004  0.95580231    -0.09300
C1200       C  0.08110491  0.68901265  0.97198362     0.29600
F1201       F  0.10084221  0.71013566  0.95506327    -0.19800
H1202       H  0.09696527  0.70762195  0.01786928     0.18000
H1203       H  0.02359442  0.62890221  0.96243071     0.18000
F1204       F  0.01929106  0.62720899  0.02576002    -0.19800
C1205       C  0.97094968  0.67220989  0.18186215    -0.21200
C1206       C  0.94944954  0.69799622  0.17360675    -0.09300
C1207       C  0.95652892  0.71649002  0.14534687     0.29600
C1208       C  0.98436086  0.70897762  0.12580200    -0.21200
C1209       C  0.00564909  0.68315039  0.13413253    -0.09300
C1210       C  0.99877265  0.66485196  0.16242665     0.29600
F1211       F  0.01844462  0.63930128  0.17083210    -0.19800
H1212       H  0.96600275  0.65732826  0.20326775     0.18000
H1213       H  0.98945013  0.72351741  0.10419105     0.18000
F1214       F  0.93607062  0.74104789  0.13590891    -0.19800
C1215       C  0.16822601  0.65620530  0.16539283    -0.21200
C1216       C  0.18968662  0.68138848  0.15569011    -0.09300
C1217       C  0.18107007  0.70176313  0.12951671     0.29600
C1218       C  0.15100666  0.69725400  0.11364207    -0.21200
C1219       C  0.12883014  0.67293805  0.12417233    -0.09300
C1220       C  0.13770386  0.65219675  0.14998958     0.29600
F1221       F  0.11667400  0.62845837  0.16054092    -0.19800
H1222       H  0.17440708  0.64068813  0.18587607     0.18000
H1223       H  0.14440332  0.71358082  0.09392503     0.18000
F1224       F  0.20145304  0.72640423  0.11978664    -0.19800
C1225       C  0.07977462  0.95949082  0.67487960    -0.21200
C1226       C  0.09671314  0.97684807  0.69907989    -0.09300
C1227       C  0.07778776  0.99444443  0.72239273     0.29600
C1228       C  0.04291640  0.99433294  0.72154895    -0.21200
C1229       C  0.02606428  0.97663122  0.69764856    -0.09300
C1230       C  0.04483147  0.95945000  0.67405298     0.29600
F1231       F  0.02937017  0.94318145  0.64983999    -0.19800
H1232       H  0.09367267  0.94611129  0.65639445     0.18000
H1233       H  0.02895669  0.00750437  0.74015831     0.18000
F1234       F  0.09287334  0.01072817  0.74683240    -0.19800
C1235       C  0.23367039  0.90782741  0.68513724    -0.21200
C1236       C  0.20395157  0.91323105  0.70303722    -0.09300
C1237       C  0.19409017  0.89055959  0.72689000     0.29600
C1238       C  0.21372430  0.86326230  0.73297112    -0.21200
C1239       C  0.24395776  0.85795836  0.71573135    -0.09300
C1240       C  0.25353687  0.88042448  0.69128538     0.29600
F1241       F  0.28224460  0.87639115  0.67374914    -0.19800
H1242       H  0.24187909  0.92533214  0.66690521     0.18000
H1243       H  0.20545934  0.84669867  0.75202971     0.18000
F1244       F  0.16662722  0.89590973  0.74595407    -0.19800
C1245       C  0.19918174  0.04920460  0.74563932    -0.21200
C1246       C  0.20670964  0.03221679  0.71682242    -0.09300
C1247       C  0.23456032  0.04149839  0.69780281     0.29600
C1248       C  0.25385394  0.06808554  0.70697144    -0.21200
C1249       C  0.24585997  0.08585557  0.73536457    -0.09300
C1250       C  0.21868132  0.07556345  0.75509895     0.29600
F1251       F  0.21096902  0.09072838  0.78365074    -0.19800
H1252       H  0.17848120  0.04163438  0.76115606     0.18000
H1253       H  0.27454913  0.07526669  0.69127648     0.18000
F1254       F  0.24263350  0.02527007  0.66993370    -0.19800
C1255       C  0.04235781  0.94298952  0.31937155    -0.21200
C1256       C  0.02262374  0.96280795  0.29930411    -0.09300
C1257       C  0.03863997  0.98374024  0.27672314     0.29600
C1258       C  0.07338393  0.98538126  0.27493047    -0.21200
C1259       C  0.09317348  0.96597722  0.29519710    -0.09300
C1260       C  0.07731792  0.94448402  0.31738687     0.29600
F1261       F  0.09554301  0.92554042  0.33768722    -0.19800
H1262       H  0.03067765  0.92676053  0.33698779     0.18000
H1263       H  0.08491834  0.00148109  0.25709281     0.18000
F1264       F  0.02069970  0.00209306  0.25565912    -0.19800
C1265       C  0.89554012  0.89606359  0.26737617    -0.21200
C1266       C  0.91468618  0.90115302  0.29528341    -0.09300
C1267       C  0.91865935  0.87499923  0.31731174     0.29600
C1268       C  0.90420206  0.84442878  0.31118245    -0.21200
C1269       C  0.88633953  0.83889857  0.28243878    -0.09300
C1270       C  0.88176951  0.86541196  0.26083533     0.29600
F1271       F  0.86367243  0.86186792  0.23335939    -0.19800
H1272       H  0.89211358  0.91566682  0.24998467     0.18000
H1273       H  0.90784589  0.82478217  0.32846467     0.18000
F1274       F  0.93670160  0.87900544  0.34474117    -0.19800
C1275       C  0.92505067  0.04338731  0.26916302    -0.21200
C1276       C  0.91656407  0.02506423  0.29692419    -0.09300
C1277       C  0.89594709  0.03950670  0.32104134     0.29600
C1278       C  0.88382699  0.07165002  0.31693706    -0.21200
C1279       C  0.89210921  0.08995534  0.28870738    -0.09300
C1280       C  0.91320870  0.07512265  0.26501239     0.29600
F1281       F  0.92336482  0.09142783  0.23784497    -0.19800
H1282       H  0.94152784  0.03311827  0.25062914     0.18000
H1283       H  0.86779502  0.08209546  0.33569871     0.18000
F1284       F  0.88838695  0.02292940  0.34887967    -0.19800
C1285       C  0.79212856  0.98800679  0.02701133    -0.21200
C1286       C  0.81307736  0.00479808  0.00494867    -0.09300
C1287       C  0.83327485  0.98684050  0.98308248     0.29600
C1288       C  0.83146257  0.95296503  0.98246914    -0.21200
C1289       C  0.80947328  0.93612035  0.00350897    -0.09300
C1290       C  0.79017705  0.95398295  0.02627849     0.29600
F1291       F  0.76814538  0.93880605  0.04662183    -0.19800
H1292       H  0.77619472  0.00132122  0.04392236     0.18000
H1293       H  0.84724932  0.93984377  0.96527251     0.18000
F1294       F  0.85484248  0.00203283  0.96223784    -0.19800
C1295       C  0.78211970  0.12881497  0.93309796    -0.21200
C1296       C  0.80811976  0.10693598  0.93899735    -0.09300
C1297       C  0.83377267  0.10293459  0.91567592     0.29600
C1298       C  0.83344797  0.12104456  0.88676833    -0.21200
C1299       C  0.80732128  0.14306588  0.88066874    -0.09300
C1300       C  0.78146753  0.14661919  0.90419646     0.29600
F1301       F  0.75578894  0.16770945  0.89977764    -0.19800
H1302       H  0.76234946  0.13224966  0.95112025     0.18000
H1303       H  0.85363485  0.11780919  0.86918678     0.18000
F1304       F  0.85962916  0.08239595  0.92139940    -0.19800
C1305       C  0.84178124  0.10985261  0.07963640    -0.21200
C1306       C  0.81512267  0.11494506  0.05863883    -0.09300
C1307       C  0.79372246  0.14172657  0.06384518     0.29600
C1308       C  0.79884953  0.16275707  0.08998740    -0.21200
C1309       C  0.82533888  0.15748474  0.11141758    -0.09300
C1310       C  0.84707286  0.13088785  0.10563884     0.29600
F1311       F  0.87351154  0.12494776  0.12503032    -0.19800
H1312       H  0.85901572  0.08986932  0.07547519     0.18000
H1313       H  0.78143572  0.18261100  0.09396419     0.18000
F1314       F  0.76745847  0.14718243  0.04402934    -0.19800
C1315       C  0.26307691  0.98815796  0.02585544    -0.21200
C1316       C  0.24117084  0.00594296  0.00621759    -0.09300
C1317       C  0.22056067  0.98901352  0.98452498     0.29600
C1318       C  0.22224242  0.95499066  0.98255182    -0.21200
C1319       C  0.24437660  0.93734510  0.00215795    -0.09300
C1320       C  0.26481287  0.95437371  0.02387135     0.29600
F1321       F  0.28773009  0.93855363  0.04216061    -0.19800
H1322       H  0.27995171  0.00054811  0.04198880     0.18000
H1323       H  0.20623597  0.94240114  0.96573674     0.18000
F1324       F  0.19876788  0.00527770  0.96534558    -0.19800
C1325       C  0.24440945  0.83767373  0.90949653    -0.21200
C1326       C  0.26767176  0.83811486  0.93472709    -0.09300
C1327       C  0.29914227  0.82389367  0.92942743     0.29600
C1328       C  0.30683462  0.80861410  0.89984118    -0.21200
C1329       C  0.28343762  0.80730386  0.87459312    -0.09300
C1330       C  0.25208592  0.82239207  0.87968413     0.29600
F1331       F  0.22879301  0.82244457  0.85601646    -0.19800
H1332       H  0.22010297  0.84878216  0.91308455     0.18000
H1333       H  0.33128698  0.79767425  0.89685245     0.18000
F1334       F  0.32275707  0.82535705  0.95275413    -0.19800
C1335       C  0.30351786  0.80035556  0.09023204    -0.21200
C1336       C  0.27962777  0.79897948  0.11577252    -0.09300
C1337       C  0.24846467  0.81430258  0.11125475     0.29600
C1338       C  0.24172781  0.83056541  0.08202851    -0.21200
C1339       C  0.26550648  0.83144964  0.05657011    -0.09300
C1340       C  0.29658839  0.81637950  0.06096979     0.29600
F1341       F  0.32067518  0.81806748  0.03735919    -0.19800
H1342       H  0.32773593  0.78899044  0.09280439     0.18000
H1343       H  0.21775515  0.84236177  0.07914597     0.18000
F1344       F  0.22443246  0.81378814  0.13496200    -0.19800
loop_ 
_geom_bond_atom_site_label_1 
_geom_bond_atom_site_label_2 
_geom_bond_distance 
_geom_bond_site_symmetry_2 
_ccdc_geom_bond_type 
C1            C2   1.406       .  A
C1            C6   1.405       .  A
C1         C1326   1.482       .  S
C2            C3   1.408       .  A
C2            H7   1.084       .  S
C3            C4   1.404   1_556  A
C3         C1319   1.484   1_556  S
C4            C5   1.398       .  A
C4            H8   1.084       .  S
C5            C6   1.402   1_554  A
C5         C1339   1.479       .  S
C6            H9   1.084       .  S
C10          C11   1.395   1_554  A
C10          C15   1.408       .  A
C10        C1306   1.474       .  S
C11          C12   1.393       .  A
C11          H16   1.085       .  S
C12          C13   1.397       .  A
C12        C1296   1.465       .  S
C13          C14   1.405   1_556  A
C13          H17   1.084       .  S
C14          C15   1.408       .  A
C14        C1286   1.484       .  S
C15          H18   1.084       .  S
C19          C20   1.419       .  A
C19          C24   1.412       .  A
C19        C1266   1.500       .  S
C20          C21   1.414       .  A
C20          H25   1.083       .  S
C21          C22   1.402       .  A
C21        C1276   1.494   1_565  S
C22          C23   1.403       .  A
C22          H26   1.084   1_565  S
C23          C24   1.408       .  A
C23        C1256   1.492   1_655  S
C24          H27   1.084       .  S
C28          C29   1.396   1_545  A
C28          C33   1.406       .  A
C28        C1246   1.477       .  S
C29          C30   1.397       .  A
C29          H34   1.085       .  S
C30          C31   1.408       .  A
C30        C1236   1.479       .  S
C31          C32   1.410       .  A
C31          H35   1.084       .  S
C32          C33   1.410   1_565  A
C32        C1226   1.493       .  S
C33          H36   1.083       .  S
C37          C38   1.400       .  A
C37          C42   1.398       .  A
C37        C1219   1.471       .  S
C38          C39   1.403       .  A
C38          H43   1.084       .  S
C39          C40   1.404       .  A
C39        C1209   1.476       .  S
C40          C41   1.402       .  A
C40          H44   1.084       .  S
C41          C42   1.401       .  A
C41        C1196   1.474       .  S
C42          H45   1.084       .  S
C46          C47   1.401       .  A
C46          C51   1.409       .  A
C46        C1179   1.480   1_455  S
C47          C48   1.399       .  A
C47          H52   1.084       .  S
C48          C49   1.403       .  A
C48        C1166   1.476       .  S
C49          C50   1.402       .  A
C49          H53   1.084       .  S
C50          C51   1.409       .  A
C50        C1186   1.489       .  S
C51          H54   1.084       .  S
C55          C56   1.398   1_554  A
C55          C60   1.407       .  A
C55        C1159   1.475       .  S
C56          C57   1.397       .  A
C56          H61   1.085       .  S
C57          C58   1.398       .  A
C57        C1146   1.466       .  S
C58          C59   1.405   1_556  A
C58          H62   1.084       .  S
C59          C60   1.408       .  A
C59        C1289   1.487       .  S
C60          H63   1.083       .  S
C64          C65   1.402       .  A
C64          C69   1.404   1_556  A
C64        C1126   1.481       .  S
C65          C66   1.405   1_556  A
C65          H70   1.083       .  S
C66          C67   1.410       .  A
C66        C1316   1.485       .  S
C67          C68   1.403       .  A
C67          H71   1.084       .  S
C68          C69   1.400       .  A
C68        C1139   1.482       .  S
C69          H72   1.084       .  S
C73          C74   1.404       .  A
C73          C78   1.410       .  A
C73        C1106   1.491       .  S
C74          C75   1.403   1_565  A
C74          H79   1.083       .  S
C75          C76   1.406       .  A
C75        C1116   1.484       .  S
C76          C77   1.404   1_545  A
C76          H80   1.084       .  S
C77          C78   1.408       .  A
C77        C1229   1.487   1_655  S
C78          H81   1.083       .  S
C82          C83   1.401   1_545  A
C82          C87   1.408   1_545  A
C82        C1096   1.485       .  S
C83          C84   1.399       .  A
C83          H88   1.084       .  S
C84          C85   1.405       .  A
C84        C1086   1.475       .  S
C85          C86   1.404       .  A
C85          H89   1.084       .  S
C86          C87   1.410       .  A
C86        C1259   1.489       .  S
C87          H90   1.083   1_565  S
C91          C92   1.409       .  A
C91          C96   1.404       .  A
C91        C1066   1.479       .  S
C92          C93   1.404       .  A
C92          H97   1.084       .  S
C93          C94   1.397       .  A
C93        C1076   1.476       .  S
C94          C95   1.401       .  A
C94          H98   1.084       .  S
C95          C96   1.403       .  A
C95        C1199   1.480       .  S
C96          H99   1.084       .  S
C100        C101   1.400       .  A
C100        C105   1.397       .  A
C100       C1059   1.473       .  S
C101        C102   1.405       .  A
C101        H106   1.084       .  S
C102        C103   1.405       .  A
C102       C1049   1.478       .  S
C103        C104   1.403       .  A
C103        H107   1.084       .  S
C104        C105   1.404       .  A
C104       C1169   1.475       .  S
C105        H108   1.084       .  S
C109        C110   1.402       .  A
C109        C114   1.402       .  A
C109       C1039   1.475       .  S
C110        C111   1.403       .  A
C110        H115   1.084       .  S
C111        C112   1.406       .  A
C111       C1029   1.479       .  S
C112        C113   1.405       .  A
C112        H116   1.084       .  S
C113        C114   1.406       .  A
C113       C1016   1.485       .  S
C114        H117   1.084       .  S
C118        C119   1.404       .  A
C118        C123   1.396       .  A
C118       C1006   1.479       .  S
C119        C120   1.408       .  A
C119        H124   1.083       .  S
C120        C121   1.408       .  A
C120        C986   1.486       .  S
C121        C122   1.405       .  A
C121        H125   1.083       .  S
C122        C123   1.399       .  A
C122        C999   1.480       .  S
C123        H126   1.084       .  S
C127        C128   1.407       .  A
C127        C132   1.406       .  A
C127        C976   1.491       .  S
C128        C129   1.409       .  A
C128        H133   1.083       .  S
C129        C130   1.407       .  A
C129        C956   1.489       .  S
C130        C131   1.401       .  A
C130        H134   1.084       .  S
C131        C132   1.402       .  A
C131        C966   1.481       .  S
C132        H135   1.083       .  S
Zr136       O137   2.437       .  S
Zr136       O138   2.430       .  S
Zr136       O139   2.429       .  S
Zr136       O142   2.427       .  S
Zr136       O144   2.378       .  S
Zr136       O145   2.383       .  S
Zr136       O146   2.404       .  S
Zr136       O147   2.394       .  S
O137        H193   0.990       .  S
O137        H201   0.990       .  S
O138        C158   1.283       .  A
O139        C160   1.282       .  A
O140       Zr150   2.450       .  S
O140        C159   1.288       .  A
O141       Zr149   2.430       .  S
O141        C160   1.284       .  A
O142        C159   1.284       .  A
O143       Zr151   2.425       .  S
O143        C158   1.282       .  A
O144       Zr149   2.395       .  S
O144       Zr151   2.373       .  S
O145       Zr150   2.391       .  S
O145       Zr151   2.380       .  S
O145        H180   0.966       .  S
O146       Zr149   2.404       .  S
O146       Zr166   2.398       .  S
O146        H183   0.963       .  S
O147       Zr150   2.390       .  S
O147       Zr166   2.386       .  S
Zr148       O173   2.442       .  S
Zr148       O167   2.447       .  S
Zr148       O175   2.421       .  S
Zr148       O163   2.420       .  S
Zr148       O154   2.403       .  S
Zr148       O155   2.408       .  S
Zr148       O156   2.374       .  S
Zr148       O157   2.378       .  S
Zr149       O168   2.437       .  S
Zr149       O161   2.435       .  S
Zr149       O162   2.438       .  S
Zr149       O155   2.402       .  S
Zr149       O156   2.396       .  S
Zr150       O152   2.436       .  S
Zr150       O174   2.438       .  S
Zr150       O176   2.432       .  S
Zr150       O154   2.398       .  S
Zr150       O157   2.402       .  S
Zr151       O177   2.435       .  S
Zr151       O178   2.436       .  S
Zr151       O153   2.439       .  S
Zr151       O154   2.399       .  S
Zr151       O155   2.397       .  S
O152        H189   0.990       .  S
O153        H184   0.990       .  S
O153        H198   0.990       .  S
O155        H181   0.965       .  S
O156       Zr166   2.376       .  S
O157       Zr166   2.376       .  S
O157        H182   0.965       .  S
C158       C1129   1.485       .  S
C159       C1189   1.492       .  S
C160       C1249   1.485       .  S
O161        H197   0.990       .  S
O162        C164   1.285       .  A
O163        C164   1.282       .  A
C164        C946   1.484       .  S
O165       Zr166   2.437       .  S
O165        H194   0.991       .  S
Zr166       O169   2.435       .  S
Zr166       O170   2.439       .  S
Zr166       O171   2.423       .  S
O167        C172   1.286       .  A
O168        H185   0.990       .  S
O168        H200   0.990       .  S
O169        H186   0.990       .  S
O170        H190   0.990       .  S
O170        H199   0.990       .  S
O171        C172   1.283       .  A
C172        C979   1.492       .  S
O173        H192   0.990       .  S
O173        H196   0.991       .  S
O174        H188   0.990       .  S
O174        H195   0.990       .  S
O175        C179   1.284       .  A
O176        C179   1.284       .  A
O177        H187   0.990       .  S
O178        H191   0.990       .  S
C179       C1026   1.486       .  S
C202        C203   1.408       .  A
C202        C207   1.397       .  A
C202        C926   1.476       .  S
C203        C204   1.409       .  A
C203        H208   1.084       .  S
C204        C205   1.407       .  A
C204        C916   1.487       .  S
C205        C206   1.399       .  A
C205        H209   1.083       .  S
C206        C207   1.397       .  A
C206        C936   1.471       .  S
C207        H210   1.084       .  S
C211        C212   1.401       .  A
C211        C216   1.403       .  A
C211        C906   1.481       .  S
C212        C213   1.404       .  A
C212        H217   1.083       .  S
C213        C214   1.407       .  A
C213        C899   1.483       .  S
C214        C215   1.403       .  A
C214        H218   1.084       .  S
C215        C216   1.404       .  A
C215        C949   1.481       .  S
C216        H219   1.084       .  S
Zr220       O221   2.442       .  S
Zr220       O222   2.436       .  S
Zr220       O223   2.439       .  S
Zr220       O226   2.428       .  S
Zr220       O228   2.377       .  S
Zr220       O229   2.382       .  S
Zr220       O230   2.411       .  S
Zr220       O231   2.398       .  S
O221        H277   0.990       .  S
O221        H285   0.990       .  S
O222        C242   1.282       .  A
O223        C244   1.283       .  A
O224       Zr234   2.440       .  S
O224        C243   1.287       .  A
O225       Zr233   2.434       .  S
O225        C244   1.284       .  A
O226        C243   1.284       .  A
O227       Zr235   2.392       .  S
O227        C242   1.275       .  A
O228       Zr233   2.404       .  S
O228       Zr235   2.385       .  S
O229       Zr234   2.392       .  S
O229       Zr235   2.376       .  S
O229        H264   0.966       .  S
O230       Zr233   2.398       .  S
O230       Zr250   2.391       .  S
O230        H267   0.966       .  S
O231       Zr234   2.382       .  S
O231       Zr250   2.376       .  S
Zr232       O257   2.442       .  S
Zr232       O251   2.440       .  S
Zr232       O259   2.456       .  S
Zr232       O247   2.456       .  S
Zr232       O238   2.405       .  S
Zr232       O239   2.409       .  S
Zr232       O240   2.384       .  S
Zr232       O241   2.389       .  S
Zr233       O252   2.436       .  S
Zr233       O245   2.435       .  S
Zr233       O246   2.436       .  S
Zr233       O239   2.404       .  S
Zr233       O240   2.394       .  S
Zr234       O236   2.436       .  S
Zr234       O258   2.437       .  S
Zr234       O260   2.420       .  S
Zr234       O238   2.400       .  S
Zr234       O241   2.400       .  S
Zr235       O261   2.435       .  S
Zr235       O262   2.434       .  S
Zr235       O237   2.439       .  S
Zr235       O238   2.391       .  S
Zr235       O239   2.374       .  S
O236        H273   0.990       .  S
O237        H268   0.990       .  S
O237        H282   0.990       .  S
O239        H265   0.963       .  S
O240       Zr250   2.383       .  S
O241       Zr250   2.376       .  S
O241        H266   0.963       .  S
C242       C1299   1.477       .  S
C243       C1119   1.488       .  S
C244       C1176   1.484       .  S
O245        H281   0.991       .  S
O246        C248   1.286       .  A
O247        C248   1.289       .  A
C248        C889   1.491       .  S
O249       Zr250   2.435       .  S
O249        H278   0.991       .  S
Zr250       O253   2.434       .  S
Zr250       O254   2.439       .  S
Zr250       O255   2.404       .  S
O251        C256   1.283       .  A
O252        H269   0.990       .  S
O252        H284   0.990       .  S
O253        H270   0.990       .  S
O254        H274   0.990       .  S
O254        H283   0.990       .  S
O255        C256   1.280       .  A
C256        C939   1.485       .  S
O257        H276   0.991       .  S
O257        H280   0.990       .  S
O258        H272   0.990       .  S
O258        H279   0.990       .  S
O259        C263   1.288       .  A
O260        C263   1.282       .  A
O261        H271   0.990       .  S
O262        H275   0.990       .  S
C263        C909   1.484       .  S
C286        C287   1.403       .  A
C286        C291   1.403       .  A
C286        C876   1.481       .  S
C287        C288   1.400       .  A
C287        H292   1.084       .  S
C288        C289   1.402       .  A
C288        C869   1.476       .  S
C289        C290   1.408       .  A
C289        H293   1.083       .  S
C290        C291   1.407       .  A
C290        C959   1.487       .  S
C291        H294   1.084       .  S
Zr295       O296   2.442       .  S
Zr295       O297   2.444       .  S
Zr295       O298   2.437       .  S
Zr295       O301   2.423       .  S
Zr295       O303   2.385       .  S
Zr295       O304   2.385       .  S
Zr295       O305   2.406       .  S
Zr295       O306   2.406       .  S
O296        H352   0.991       .  S
O296        H360   0.990       .  S
O297        C317   1.285       .  A
O298        C319   1.284       .  A
O299       Zr309   2.444       .  S
O299        C318   1.286       .  A
O300       Zr308   2.429       .  S
O300        C319   1.284       .  A
O301        C318   1.284       .  A
O302       Zr310   2.405       .  S
O302        C317   1.278       .  A
O303       Zr308   2.403       .  S
O303       Zr310   2.375       .  S
O304       Zr309   2.391       .  S
O304       Zr310   2.378       .  S
O304        H339   0.965       .  S
O305       Zr308   2.403       .  S
O305       Zr325   2.396       .  S
O305        H342   0.964       .  S
O306       Zr309   2.399       .  S
O306       Zr325   2.397       .  S
Zr307       O332   2.441       .  S
Zr307       O326   2.439       .  S
Zr307       O334   2.402       .  S
Zr307       O322   2.426       .  S
Zr307       O313   2.402       .  S
Zr307       O314   2.400       .  S
Zr307       O315   2.371       .  S
Zr307       O316   2.384       .  S
Zr308       O327   2.437       .  S
Zr308       O320   2.434       .  S
Zr308       O321   2.447       .  S
Zr308       O314   2.395       .  S
Zr308       O315   2.389       .  S
Zr309       O311   2.435       .  S
Zr309       O333   2.440       .  S
Zr309       O335   2.448       .  S
Zr309       O313   2.384       .  S
Zr309       O316   2.399       .  S
Zr310       O336   2.434       .  S
Zr310       O337   2.436       .  S
Zr310       O312   2.435       .  S
Zr310       O313   2.387       .  S
Zr310       O314   2.383       .  S
O311        H348   0.990       .  S
O312        H343   0.990       .  S
O312        H357   0.990       .  S
O314        H340   0.967       .  S
O315       Zr325   2.377       .  S
O316       Zr325   2.381       .  S
O316        H341   0.967       .  S
C317        C879   1.488       .  S
C318        C859   1.486       .  S
C319       C1036   1.482       .  S
O320        H356   0.990       .  S
O321        C323   1.287       .  A
O322        C323   1.283       .  A
C323       C1079   1.480       .  S
O324       Zr325   2.439       .  S
O324        H353   0.990       .  S
Zr325       O328   2.438       .  S
Zr325       O329   2.439       .  S
Zr325       O330   2.423       .  S
O326        C331   1.285       .  A
O327        H344   0.990       .  S
O327        H359   0.990       .  S
O328        H345   0.990       .  S
O329        H349   0.990       .  S
O329        H358   0.990       .  S
O330        C331   1.283       .  A
C331       C1329   1.492       .  S
O332        H351   0.990       .  S
O332        H355   0.990       .  S
O333        H347   0.990       .  S
O333        H354   0.990       .  S
O334        C338   1.280       .  A
O335        C338   1.288       .  A
O336        H346   0.990       .  S
O337        H350   0.990       .  S
C338       C1239   1.487       .  S
C361        C362   1.407       .  A
C361        C366   1.403       .  A
C361        C886   1.482       .  S
C362        C363   1.406       .  A
C362        H367   1.084       .  S
C363        C364   1.404       .  A
C363       C1019   1.482       .  S
C364        C365   1.404       .  A
C364        H368   1.084       .  S
C365        C366   1.403       .  A
C365        C846   1.482       .  S
C366        H369   1.084       .  S
C370        C371   1.406       .  A
C370        C375   1.399       .  A
C370        C839   1.481       .  S
C371        C372   1.406       .  A
C371        H376   1.084       .  S
C372        C373   1.407       .  A
C372        C856   1.488       .  S
C373        C374   1.407       .  A
C373        H377   1.084       .  S
C374        C375   1.402       .  A
C374        C826   1.481       .  S
C375        H378   1.084       .  S
C379        C380   1.396       .  A
C379        C384   1.407       .  A
C379        C816   1.473       .  S
C380        C381   1.395       .  A
C380        H385   1.085       .  S
C381        C382   1.398       .  A
C381        C806   1.468       .  S
C382        C383   1.406       .  A
C382        H386   1.084       .  S
C383        C384   1.407       .  A
C383        C919   1.483       .  S
C384        H387   1.083       .  S
Zr388       O389   2.439       .  S
Zr388       O390   2.428       .  S
Zr388       O391   2.441       .  S
Zr388       O394   2.450       .  S
Zr388       O396   2.384       .  S
Zr388       O397   2.385       .  S
Zr388       O398   2.410       .  S
Zr388       O399   2.391       .  S
O389        H445   0.990       .  S
O389        H453   0.990       .  S
O390        C410   1.282       .  A
O391        C412   1.286       .  A
O392       Zr402   2.431       .  S
O392        C411   1.285       .  A
O393       Zr401   2.442       .  S
O393        C412   1.286       .  A
O394        C411   1.288       .  A
O395       Zr403   2.400       .  S
O395        C410   1.277       .  A
O396       Zr401   2.400       .  S
O396       Zr403   2.383       .  S
O397       Zr402   2.396       .  S
O397       Zr403   2.380       .  S
O397        H432   0.969       .  S
O398       Zr401   2.404       .  S
O398       Zr418   2.374       .  S
O398        H435   0.965       .  S
O399       Zr402   2.390       .  S
O399       Zr418   2.379       .  S
Zr400       O425   2.444       .  S
Zr400       O419   2.443       .  S
Zr400       O427   2.434       .  S
Zr400       O415   2.440       .  S
Zr400       O406   2.396       .  S
Zr400       O407   2.412       .  S
Zr400       O408   2.379       .  S
Zr400       O409   2.387       .  S
Zr401       O420   2.437       .  S
Zr401       O413   2.433       .  S
Zr401       O414   2.447       .  S
Zr401       O407   2.402       .  S
Zr401       O408   2.396       .  S
Zr402       O404   2.434       .  S
Zr402       O426   2.441       .  S
Zr402       O428   2.441       .  S
Zr402       O406   2.384       .  S
Zr402       O409   2.399       .  S
Zr403       O429   2.436       .  S
Zr403       O430   2.437       .  S
Zr403       O405   2.437       .  S
Zr403       O406   2.379       .  S
Zr403       O407   2.389       .  S
O404        H441   0.990       .  S
O405        H436   0.990       .  S
O405        H450   0.990       .  S
O407        H433   0.965       .  S
O408       Zr418   2.383       .  S
O409       Zr418   2.389       .  S
O409        H434   0.970       .  S
C410        C809   1.476       .  S
C411        C849   1.493       .  S
C412        C836   1.483       .  S
O413        H449   0.990       .  S
O414        C416   1.287       .  A
O415        C416   1.284       .  A
C416       C1109   1.493       .  S
O417       Zr418   2.439       .  S
O417        H446   0.990       .  S
Zr418       O421   2.438       .  S
Zr418       O422   2.439       .  S
Zr418       O423   2.383       .  S
O419        C424   1.285       .  A
O420        H437   0.990       .  S
O420        H452   0.990       .  S
O421        H438   0.990       .  S
O422        H442   0.990       .  S
O422        H451   0.990       .  S
O423        C424   1.275       .  A
C424       C1149   1.467       .  S
O425        H444   0.991       .  S
O425        H448   0.990       .  S
O426        H440   0.990       .  S
O426        H447   0.990       .  S
O427        C431   1.285       .  A
O428        C431   1.286       .  A
O429        H439   0.990       .  S
O430        H443   0.990       .  S
C431       C1069   1.488       .  S
C454        C455   1.402       .  A
C454        C459   1.400       .  A
C454        C796   1.474       .  S
C455        C456   1.402       .  A
C455        H460   1.084       .  S
C456        C457   1.405       .  A
C456        C786   1.474       .  S
C457        C458   1.403       .  A
C457        H461   1.084       .  S
C458        C459   1.399       .  A
C458        C896   1.476       .  S
C459        H462   1.084       .  S
Zr463       O464   2.445       .  S
Zr463       O465   2.436       .  S
Zr463       O466   2.449       .  S
Zr463       O469   2.405       .  S
Zr463       O471   2.372       .  S
Zr463       O472   2.392       .  S
Zr463       O473   2.402       .  S
Zr463       O474   2.399       .  S
O464        H520   0.991       .  S
O464        H528   0.991       .  S
O465        C485   1.283       .  A
O466        C487   1.285       .  A
O467       Zr477   2.471       .  S
O467        C486   1.293       .  A
O468       Zr476   2.446       .  S
O468        C487   1.286       .  A
O469        C486   1.280       .  A
O470       Zr478   2.417       .  S
O470        C485   1.280       .  A
O471       Zr476   2.406       .  S
O471       Zr478   2.382       .  S
O472       Zr477   2.407       .  S
O472       Zr478   2.377       .  S
O472        H507   0.966       .  S
O473       Zr476   2.407       .  S
O473       Zr493   2.382       .  S
O473        H510   0.964       .  S
O474       Zr477   2.394       .  S
O474       Zr493   2.370       .  S
Zr475       O500   2.440       .  S
Zr475       O494   2.460       .  S
Zr475       O502   2.436       .  S
Zr475       O490   2.417       .  S
Zr475       O481   2.403       .  S
Zr475       O482   2.419       .  S
Zr475       O483   2.370       .  S
Zr475       O484   2.378       .  S
Zr476       O495   2.435       .  S
Zr476       O488   2.436       .  S
Zr476       O489   2.453       .  S
Zr476       O482   2.401       .  S
Zr476       O483   2.396       .  S
Zr477       O479   2.438       .  S
Zr477       O501   2.435       .  S
Zr477       O503   2.485       .  S
Zr477       O481   2.386       .  S
Zr477       O484   2.406       .  S
Zr478       O504   2.435       .  S
Zr478       O505   2.435       .  S
Zr478       O480   2.437       .  S
Zr478       O481   2.396       .  S
Zr478       O482   2.380       .  S
O479        H516   0.990       .  S
O480        H511   0.990       .  S
O480        H525   0.990       .  S
O482        H508   0.964       .  S
O483       Zr493   2.381       .  S
O484       Zr493   2.389       .  S
O484        H509   0.967       .  S
C485        C789   1.487       .  S
C486        C929   1.484       .  S
C487        C776   1.487       .  S
O488        H524   0.990       .  S
O489        C491   1.289       .  A
O490        C491   1.281       .  A
C491       C1309   1.481       .  S
O492       Zr493   2.438       .  S
O492        H521   0.990       .  S
Zr493       O496   2.439       .  S
Zr493       O497   2.438       .  S
Zr493       O498   2.377       .  S
O494        C499   1.286       .  A
O495        H512   0.990       .  S
O495        H527   0.990       .  S
O496        H513   0.990       .  S
O497        H517   0.990       .  S
O497        H526   0.990       .  S
O498        C499   1.274       .  A
C499       C1046   1.478       .  S
O500        H519   0.991       .  S
O500        H523   0.990       .  S
O501        H515   0.990       .  S
O501        H522   0.990       .  S
O502        C506   1.285       .  A
O503        C506   1.294       .  A
O504        H514   0.990       .  S
O505        H518   0.990       .  S
C506       C1279   1.508       .  S
C529        C530   1.393       .  A
C529        C534   1.397       .  A
C529        C756   1.461       .  S
C530        C531   1.399       .  A
C530        H535   1.084       .  S
C531        C532   1.411       .  A
C531        C829   1.484       .  S
C532        C533   1.412       .  A
C532        H536   1.083       .  S
C533        C534   1.400       .  A
C533        C766   1.486       .  S
C534        H537   1.084       .  S
C538        C539   1.414       .  A
C538        C543   1.407       .  A
C538        C779   1.493       .  S
C539        C540   1.415       .  A
C539        H544   1.083       .  S
C540        C541   1.403       .  A
C540        C746   1.491       .  S
C541        C542   1.401       .  A
C541        H545   1.084       .  S
C542        C543   1.402       .  A
C542        C989   1.485       .  S
C543        H546   1.084       .  S
Zr547       O548   2.445       .  S
Zr547       O549   2.449       .  S
Zr547       O550   2.458       .  S
Zr547       O553   2.418       .  S
Zr547       O555   2.381       .  S
Zr547       O556   2.390       .  S
Zr547       O557   2.415       .  S
Zr547       O558   2.400       .  S
O548        H604   0.991       .  S
O548        H612   0.990       .  S
O549        C569   1.285       .  A
O550        C571   1.287       .  A
O551       Zr561   2.452       .  S
O551        C570   1.289       .  A
O552       Zr560   2.474       .  S
O552        C571   1.291       .  A
O553        C570   1.283       .  A
O554       Zr562   2.393       .  S
O554        C569   1.276       .  A
O555       Zr560   2.403       .  S
O555       Zr562   2.392       .  S
O556       Zr561   2.400       .  S
O556       Zr562   2.384       .  S
O556        H591   0.967       .  S
O557       Zr560   2.399       .  S
O557       Zr577   2.390       .  S
O557        H594   0.967       .  S
O558       Zr561   2.386       .  S
O558       Zr577   2.377       .  S
Zr559       O584   2.442       .  S
Zr559       O578   2.437       .  S
Zr559       O586   2.433       .  S
Zr559       O574   2.400       .  S
Zr559       O565   2.385       .  S
Zr559       O566   2.414       .  S
Zr559       O567   2.380       .  S
Zr559       O568   2.376       .  S
Zr560       O579   2.436       .  S
Zr560       O572   2.436       .  S
Zr560       O573   2.449       .  S
Zr560       O566   2.410       .  S
Zr560       O567   2.406       .  S
Zr561       O563   2.438       .  S
Zr561       O585   2.436       .  S
Zr561       O587   2.462       .  S
Zr561       O565   2.386       .  S
Zr561       O568   2.401       .  S
Zr562       O588   2.436       .  S
Zr562       O589   2.437       .  S
Zr562       O564   2.437       .  S
Zr562       O565   2.381       .  S
Zr562       O566   2.381       .  S
O563        H600   0.990       .  S
O564        H595   0.990       .  S
O564        H609   0.990       .  S
O566        H592   0.969       .  S
O567       Zr577   2.376       .  S
O568       Zr577   2.383       .  S
O568        H593   0.966       .  S
C569       C1206   1.478       .  S
C570       C1156   1.481       .  S
C571       C1269   1.502       .  S
O572        H608   0.990       .  S
O573        C575   1.288       .  A
O574        C575   1.277       .  A
C575        C819   1.477       .  S
O576       Zr577   2.438       .  S
O576        H605   0.990       .  S
Zr577       O580   2.436       .  S
Zr577       O581   2.437       .  S
Zr577       O582   2.413       .  S
O578        C583   1.283       .  A
O579        H596   0.990       .  S
O579        H611   0.990       .  S
O580        H597   0.990       .  S
O581        H601   0.990       .  S
O581        H610   0.990       .  S
O582        C583   1.280       .  A
C583        C769   1.480       .  S
O584        H603   0.991       .  S
O584        H607   0.990       .  S
O585        H599   0.990       .  S
O585        H606   0.990       .  S
O586        C590   1.285       .  A
O587        C590   1.290       .  A
O588        H598   0.990       .  S
O589        H602   0.990       .  S
C590        C749   1.492       .  S
Zr613       O614   2.439       .  S
Zr613       O615   2.425       .  S
Zr613       O616   2.410       .  S
Zr613       O619   2.396       .  S
Zr613       O621   2.374       .  S
Zr613       O622   2.377       .  S
Zr613       O623   2.397       .  S
Zr613       O624   2.398       .  S
O614        H670   0.990       .  S
O614        H678   0.990       .  S
O615        C635   1.283       .  A
O616        C637   1.280       .  A
O617       Zr627   2.441       .  S
O617        C636   1.286       .  A
O618       Zr626   2.433       .  S
O618        C637   1.285       .  A
O619        C636   1.279       .  A
O620       Zr628   2.429       .  S
O620        C635   1.284       .  A
O621       Zr626   2.390       .  S
O621       Zr628   2.377       .  S
O622       Zr627   2.382       .  S
O622       Zr628   2.372       .  S
O622        H657   0.965       .  S
O623       Zr626   2.391       .  S
O623       Zr643   2.398       .  S
O623        H660   0.967       .  S
O624       Zr627   2.390       .  S
O624       Zr643   2.396       .  S
Zr625       O650   2.446       .  S
Zr625       O644   2.425       .  S
Zr625       O652   2.412       .  S
Zr625       O640   2.410       .  S
Zr625       O631   2.396       .  S
Zr625       O632   2.399       .  S
Zr625       O633   2.375       .  S
Zr625       O634   2.380       .  S
Zr626       O645   2.437       .  S
Zr626       O638   2.436       .  S
Zr626       O639   2.421       .  S
Zr626       O632   2.395       .  S
Zr626       O633   2.389       .  S
Zr627       O629   2.435       .  S
Zr627       O651   2.437       .  S
Zr627       O653   2.438       .  S
Zr627       O631   2.391       .  S
Zr627       O634   2.393       .  S
Zr628       O654   2.435       .  S
Zr628       O655   2.436       .  S
Zr628       O630   2.435       .  S
Zr628       O631   2.397       .  S
Zr628       O632   2.393       .  S
O629        H666   0.990       .  S
O630        H661   0.990       .  S
O630        H675   0.990       .  S
O632        H658   0.966       .  S
O633       Zr643   2.374       .  S
O634       Zr643   2.379       .  S
O634        H659   0.966       .  S
C635       C1336   1.487       .  S
C636       C1216   1.462       .  S
C637       C1089   1.482       .  S
O638        H674   0.990       .  S
O639        C641   1.282       .  A
O640        C641   1.280       .  A
C641        C759   1.457       .  S
O642       Zr643   2.440       .  S
O642        H671   0.990       .  S
Zr643       O646   2.438       .  S
Zr643       O647   2.438       .  S
Zr643       O648   2.437       .  S
O644        C649   1.283       .  A
O645        H662   0.990       .  S
O645        H677   0.990       .  S
O646        H663   0.990       .  S
O647        H667   0.990       .  S
O647        H676   0.990       .  S
O648        C649   1.286       .  A
C649        C866   1.491       .  S
O650        H669   0.990       .  S
O650        H673   0.990       .  S
O651        H665   0.990       .  S
O651        H672   0.990       .  S
O652        C656   1.282       .  A
O653        C656   1.286       .  A
O654        H664   0.991       .  S
O655        H668   0.990       .  S
C656       C1009   1.485       .  S
Zr679       O680   2.443       .  S
Zr679       O681   2.436       .  S
Zr679       O682   2.424       .  S
Zr679       O685   2.395       .  S
Zr679       O687   2.374       .  S
Zr679       O688   2.379       .  S
Zr679       O689   2.402       .  S
Zr679       O690   2.406       .  S
O680        H736   0.991       .  S
O680        H744   0.990       .  S
O681        C701   1.284       .  A
O682        C703   1.282       .  A
O683       Zr693   2.434       .  S
O683        C702   1.283       .  A
O684       Zr692   2.433       .  S
O684        C703   1.284       .  A
O685        C702   1.277       .  A
O686       Zr694   2.427       .  S
O686        C701   1.283       .  A
O687       Zr692   2.397       .  S
O687       Zr694   2.384       .  S
O688       Zr693   2.391       .  S
O688       Zr694   2.373       .  S
O688        H723   0.966       .  S
O689       Zr692   2.398       .  S
O689       Zr709   2.388       .  S
O689        H726   0.966       .  S
O690       Zr693   2.393       .  S
O690       Zr709   2.396       .  S
Zr691       O716   2.446       .  S
Zr691       O710   2.429       .  S
Zr691       O718   2.422       .  S
Zr691       O706   2.423       .  S
Zr691       O697   2.402       .  S
Zr691       O698   2.399       .  S
Zr691       O699   2.373       .  S
Zr691       O700   2.379       .  S
Zr692       O711   2.438       .  S
Zr692       O704   2.432       .  S
Zr692       O705   2.436       .  S
Zr692       O698   2.394       .  S
Zr692       O699   2.390       .  S
Zr693       O695   2.433       .  S
Zr693       O717   2.439       .  S
Zr693       O719   2.439       .  S
Zr693       O697   2.396       .  S
Zr693       O700   2.386       .  S
Zr694       O720   2.436       .  S
Zr694       O721   2.435       .  S
Zr694       O696   2.436       .  S
Zr694       O697   2.400       .  S
Zr694       O698   2.398       .  S
O695        H732   0.990       .  S
O696        H727   0.990       .  S
O696        H741   0.990       .  S
O698        H724   0.967       .  S
O699       Zr709   2.373       .  S
O700       Zr709   2.376       .  S
O700        H725   0.964       .  S
C701        C969   1.492       .  S
C702        C799   1.457       .  S
C703        C996   1.484       .  S
O704        H740   0.990       .  S
O705        C707   1.285       .  A
O706        C707   1.283       .  A
C707       C1056   1.475       .  S
O708       Zr709   2.441       .  S
O708        H737   0.990       .  S
Zr709       O712   2.437       .  S
Zr709       O713   2.440       .  S
Zr709       O714   2.430       .  S
O710        C715   1.284       .  A
O711        H728   0.990       .  S
O711        H743   0.990       .  S
O712        H729   0.990       .  S
O713        H733   0.990       .  S
O713        H742   0.990       .  S
O714        C715   1.284       .  A
C715       C1136   1.489       .  S
O716        H735   0.990       .  S
O716        H739   0.990       .  S
O717        H731   0.990       .  S
O717        H738   0.990       .  S
O718        C722   1.284       .  A
O719        C722   1.286       .  A
O720        H730   0.990       .  S
O721        H734   0.990       .  S
C722       C1099   1.489       .  S
C745        C746   1.409       .  A
C745        C750   1.405       .  A
C745        H752   1.083       .  S
C746        C747   1.404       .  A
C747        C748   1.401       .  A
C747        F754   1.357       .  S
C748        C749   1.410       .  A
C748        H753   1.083       .  S
C749        C750   1.407       .  A
C750        F751   1.357       .  S
C755        C756   1.400       .  A
C755        C760   1.393       .  A
C755        H762   1.084       .  S
C756        C757   1.403       .  A
C757        C758   1.391       .  A
C757        F764   1.358       .  S
C758        C759   1.401       .  A
C758        H763   1.084       .  S
C759        C760   1.404       .  A
C760        F761   1.358       .  S
C765        C766   1.407       .  A
C765        C770   1.398       .  A
C765        H772   1.083       .  S
C766        C767   1.407       .  A
C767        C768   1.399       .  A
C767        F774   1.357       .  S
C768        C769   1.406       .  A
C768        H773   1.083       .  S
C769        C770   1.407       .  A
C770        F771   1.358       .  S
C775        C776   1.404       .  A
C775        C780   1.398       .  A
C775        H782   1.083       .  S
C776        C777   1.411       .  A
C777        C778   1.408       .  A
C777        F784   1.358       .  S
C778        C779   1.407       .  A
C778        H783   1.083       .  S
C779        C780   1.408       .  A
C780        F781   1.357       .  S
C785        C786   1.400       .  A
C785        C790   1.396       .  A
C785        H792   1.084       .  S
C786        C787   1.403       .  A
C787        C788   1.399       .  A
C787        F794   1.358       .  S
C788        C789   1.409       .  A
C788        H793   1.083       .  S
C789        C790   1.412       .  A
C790        F791   1.357       .  S
C795        C796   1.404       .  A
C795        C800   1.389       .  A
C795        H802   1.084       .  S
C796        C797   1.407       .  A
C797        C798   1.398       .  A
C797        F804   1.357       .  S
C798        C799   1.401       .  A
C798        H803   1.083       .  S
C799        C800   1.402       .  A
C800        F801   1.358       .  S
C805        C806   1.400       .  A
C805        C810   1.392       .  A
C805        H812   1.084       .  S
C806        C807   1.402       .  A
C807        C808   1.396       .  A
C807        F814   1.357       .  S
C808        C809   1.407       .  A
C808        H813   1.083       .  S
C809        C810   1.410       .  A
C810        F811   1.358       .  S
C815        C816   1.398       .  A
C815        C820   1.393       .  A
C815        H822   1.084       .  S
C816        C817   1.407       .  A
C817        C818   1.396       .  A
C817        F824   1.357       .  S
C818        C819   1.403       .  A
C818        H823   1.083       .  S
C819        C820   1.414       .  A
C820        F821   1.357       .  S
C825        C826   1.406       .  A
C825        C830   1.397       .  A
C825        H832   1.083       .  S
C826        C827   1.404       .  A
C827        C828   1.397       .  A
C827        F834   1.358       .  S
C828        C829   1.409       .  A
C828        H833   1.083       .  S
C829        C830   1.405       .  A
C830        F831   1.357       .  S
C835        C836   1.407       .  A
C835        C840   1.403       .  A
C835        H842   1.083       .  S
C836        C837   1.410       .  A
C837        C838   1.392       .  A
C837        F844   1.357       .  S
C838        C839   1.401       .  A
C838        H843   1.084       .  S
C839        C840   1.408       .  A
C840        F841   1.358       .  S
C845        C846   1.402       .  A
C845        C850   1.396       .  A
C845        H852   1.084       .  S
C846        C847   1.405       .  A
C847        C848   1.401       .  A
C847        F854   1.358       .  S
C848        C849   1.411       .  A
C848        H853   1.083       .  S
C849        C850   1.412       .  A
C850        F851   1.355       .  S
C855        C856   1.404       .  A
C855        C860   1.395       .  A
C855        H862   1.083       .  S
C856        C857   1.408       .  A
C857        C858   1.404       .  A
C857        F864   1.357       .  S
C858        C859   1.407       .  A
C858        H863   1.083       .  S
C859        C860   1.410       .  A
C860        F861   1.357       .  S
C865        C866   1.409       .  A
C865        C870   1.398       .  A
C865        H872   1.083       .  S
C866        C867   1.415       .  A
C867        C868   1.400       .  A
C867        F874   1.357       .  S
C868        C869   1.400       .  A
C868        H873   1.083       .  S
C869        C870   1.403       .  A
C870        F871   1.358       .  S
C875        C876   1.399       .  A
C875        C880   1.391       .  A
C875        H882   1.084       .  S
C876        C877   1.407       .  A
C877        C878   1.404       .  A
C877        F884   1.357       .  S
C878        C879   1.408       .  A
C878        H883   1.083       .  S
C879        C880   1.414       .  A
C880        F881   1.358       .  S
C885        C886   1.402       .  A
C885        C890   1.399       .  A
C885        H892   1.083       .  S
C886        C887   1.404       .  A
C887        C888   1.402       .  A
C887        F894   1.358       .  S
C888        C889   1.411       .  A
C888        H893   1.083       .  S
C889        C890   1.410       .  A
C890        F891   1.357       .  S
C895        C896   1.402       .  A
C895        C900   1.398       .  A
C895        H902   1.083       .  S
C896        C897   1.406       .  A
C897        C898   1.395       .  A
C897        F904   1.358       .  S
C898        C899   1.405       .  A
C898        H903   1.083       .  S
C899        C900   1.409       .  A
C900        F901   1.357       .  S
C905        C906   1.403       .  A
C905        C910   1.395       .  A
C905        H912   1.083       .  S
C906        C907   1.406       .  A
C907        C908   1.402       .  A
C907        F914   1.358       .  S
C908        C909   1.409       .  A
C908        H913   1.083       .  S
C909        C910   1.408       .  A
C910        F911   1.357       .  S
C915        C916   1.406       .  A
C915        C920   1.401       .  A
C915        H922   1.083       .  S
C916        C917   1.409       .  A
C917        C918   1.395       .  A
C917        F924   1.358       .  S
C918        C919   1.403       .  A
C918        H923   1.083       .  S
C919        C920   1.408       .  A
C920        F921   1.357       .  S
C925        C926   1.397       .  A
C925        C930   1.392       .  A
C925        H932   1.084       .  S
C926        C927   1.408       .  A
C927        C928   1.402       .  A
C927        F934   1.357       .  S
C928        C929   1.405       .  A
C928        H933   1.083       .  S
C929        C930   1.414       .  A
C930        F931   1.357       .  S
C935        C936   1.403       .  A
C935        C940   1.400       .  A
C935        H942   1.084       .  S
C936        C937   1.399       .  A
C937        C938   1.390       .  A
C937        F944   1.358       .  S
C938        C939   1.409       .  A
C938        H943   1.083       .  S
C939        C940   1.412       .  A
C940        F941   1.357       .  S
C945        C946   1.406       .  A
C945        C950   1.390       .  A
C945        H952   1.083       .  S
C946        C947   1.410       .  A
C947        C948   1.404       .  A
C947        F954   1.357       .  S
C948        C949   1.406       .  A
C948        H953   1.083       .  S
C949        C950   1.404       .  A
C950        F951   1.358       .  S
C955        C956   1.407       .  A
C955        C960   1.400       .  A
C955        H962   1.083       .  S
C956        C957   1.409       .  A
C957        C958   1.396       .  A
C957        F964   1.357       .  S
C958        C959   1.405       .  A
C958        H963   1.083       .  S
C959        C960   1.407       .  A
C960        F961   1.357       .  S
C965        C966   1.403       .  A
C965        C970   1.399       .  A
C965        H972   1.084       .  S
C966        C967   1.403       .  A
C967        C968   1.400       .  A
C967        F974   1.357       .  S
C968        C969   1.410       .  A
C968        H973   1.083       .  S
C969        C970   1.413       .  A
C970        F971   1.358       .  S
C975        C976   1.408       .  A
C975        C980   1.405       .  A
C975        H982   1.083       .  S
C976        C977   1.408       .  A
C977        C978   1.396       .  A
C977        F984   1.358       .  S
C978        C979   1.407       .  A
C978        H983   1.083       .  S
C979        C980   1.411       .  A
C980        F981   1.357       .  S
C985        C986   1.407       .  A
C985        C990   1.401       .  A
C985        H992   1.083       .  S
C986        C987   1.408       .  A
C987        C988   1.396       .  A
C987        F994   1.357       .  S
C988        C989   1.405       .  A
C988        H993   1.083       .  S
C989        C990   1.407       .  A
C990        F991   1.357       .  S
C995        C996   1.410       .  A
C995       C1000   1.396       .  A
C995       H1002   1.083       .  S
C996        C997   1.409       .  A
C997        C998   1.394       .  A
C997       F1004   1.357       .  S
C998        C999   1.405       .  A
C998       H1003   1.083       .  S
C999       C1000   1.404       .  A
C1000      F1001   1.358       .  S
C1005      C1006   1.405       .  A
C1005      C1010   1.398       .  A
C1005      H1012   1.083       .  S
C1006      C1007   1.403       .  A
C1007      C1008   1.395       .  A
C1007      F1014   1.358       .  S
C1008      C1009   1.410       .  A
C1008      H1013   1.083       .  S
C1009      C1010   1.409       .  A
C1010      F1011   1.357       .  S
C1015      C1016   1.407       .  A
C1015      C1020   1.402       .  A
C1015      H1022   1.083       .  S
C1016      C1017   1.407       .  A
C1017      C1018   1.397       .  A
C1017      F1024   1.358       .  S
C1018      C1019   1.403       .  A
C1018      H1023   1.083       .  S
C1019      C1020   1.406       .  A
C1020      F1021   1.357       .  S
C1025      C1026   1.407       .  A
C1025      C1030   1.394       .  A
C1025      H1032   1.083       .  S
C1026      C1027   1.412       .  A
C1027      C1028   1.401       .  A
C1027      F1034   1.358       .  S
C1028      C1029   1.403       .  A
C1028      H1033   1.083       .  S
C1029      C1030   1.404       .  A
C1030      F1031   1.358       .  S
C1035      C1036   1.408       .  A
C1035      C1040   1.399       .  A
C1035      H1042   1.083       .  S
C1036      C1037   1.410       .  A
C1037      C1038   1.398       .  A
C1037      F1044   1.358       .  S
C1038      C1039   1.402       .  A
C1038      H1043   1.084       .  S
C1039      C1040   1.402       .  A
C1040      F1041   1.357       .  S
C1045      C1046   1.408       .  A
C1045      C1050   1.393   1_655  A
C1045      H1052   1.083       .  S
C1046      C1047   1.407       .  A
C1047      C1048   1.400       .  A
C1047      F1054   1.357       .  S
C1048      C1049   1.406   1_655  A
C1048      H1053   1.083       .  S
C1049      C1050   1.403       .  A
C1050      F1051   1.358       .  S
C1055      C1056   1.405       .  A
C1055      C1060   1.395       .  A
C1055      H1062   1.084       .  S
C1056      C1057   1.408       .  A
C1057      C1058   1.401       .  A
C1057      F1064   1.357       .  S
C1058      C1059   1.403       .  A
C1058      H1063   1.083       .  S
C1059      C1060   1.402       .  A
C1060      F1061   1.358       .  S
C1065      C1066   1.400   1_655  A
C1065      C1070   1.395       .  A
C1065      H1072   1.084   1_655  S
C1066      C1067   1.406   1_455  A
C1067      C1068   1.402       .  A
C1067      F1074   1.357       .  S
C1068      C1069   1.408       .  A
C1068      H1073   1.083       .  S
C1069      C1070   1.412       .  A
C1070      F1071   1.356       .  S
C1075      C1076   1.403       .  A
C1075      C1080   1.395       .  A
C1075      H1082   1.084       .  S
C1076      C1077   1.403       .  A
C1077      C1078   1.403       .  A
C1077      F1084   1.357       .  S
C1078      C1079   1.407       .  A
C1078      H1083   1.083       .  S
C1079      C1080   1.407       .  A
C1080      F1081   1.358       .  S
C1085      C1086   1.399       .  A
C1085      C1090   1.393       .  A
C1085      H1092   1.084       .  S
C1086      C1087   1.406       .  A
C1087      C1088   1.397       .  A
C1087      F1094   1.357       .  S
C1088      C1089   1.407       .  A
C1088      H1093   1.083       .  S
C1089      C1090   1.413       .  A
C1090      F1091   1.357       .  S
C1095      C1096   1.406       .  A
C1095      C1100   1.399       .  A
C1095      H1102   1.083       .  S
C1096      C1097   1.405       .  A
C1097      C1098   1.397       .  A
C1097      F1104   1.358       .  S
C1098      C1099   1.410       .  A
C1098      H1103   1.083       .  S
C1099      C1100   1.410       .  A
C1100      F1101   1.357       .  S
C1105      C1106   1.407       .  A
C1105      C1110   1.401       .  A
C1105      H1112   1.083       .  S
C1106      C1107   1.407       .  A
C1107      C1108   1.400       .  A
C1107      F1114   1.358       .  S
C1108      C1109   1.410       .  A
C1108      H1113   1.083       .  S
C1109      C1110   1.409       .  A
C1110      F1111   1.357       .  S
C1115      C1116   1.401       .  A
C1115      C1120   1.394       .  A
C1115      H1122   1.083       .  S
C1116      C1117   1.408       .  A
C1117      C1118   1.400       .  A
C1117      F1124   1.357       .  S
C1118      C1119   1.407       .  A
C1118      H1123   1.083       .  S
C1119      C1120   1.413       .  A
C1120      F1121   1.356       .  S
C1125      C1126   1.402       .  A
C1125      C1130   1.392       .  A
C1125      H1132   1.083       .  S
C1126      C1127   1.407       .  A
C1127      C1128   1.401       .  A
C1127      F1134   1.358       .  S
C1128      C1129   1.409       .  A
C1128      H1133   1.083       .  S
C1129      C1130   1.410       .  A
C1130      F1131   1.357       .  S
C1135      C1136   1.410       .  A
C1135      C1140   1.401       .  A
C1135      H1142   1.083       .  S
C1136      C1137   1.411       .  A
C1137      C1138   1.397       .  A
C1137      F1144   1.358       .  S
C1138      C1139   1.403       .  A
C1138      H1143   1.084       .  S
C1139      C1140   1.404       .  A
C1140      F1141   1.357       .  S
C1145      C1146   1.402       .  A
C1145      C1150   1.395       .  A
C1145      H1152   1.083       .  S
C1146      C1147   1.401       .  A
C1147      C1148   1.394       .  A
C1147      F1154   1.358       .  S
C1148      C1149   1.406       .  A
C1148      H1153   1.084       .  S
C1149      C1150   1.403       .  A
C1150      F1151   1.357       .  S
C1155      C1156   1.408       .  A
C1155      C1160   1.391       .  A
C1155      H1162   1.083       .  S
C1156      C1157   1.408       .  A
C1157      C1158   1.402       .  A
C1157      F1164   1.357       .  S
C1158      C1159   1.406       .  A
C1158      H1163   1.083       .  S
C1159      C1160   1.400       .  A
C1160      F1161   1.358       .  S
C1165      C1166   1.406       .  A
C1165      C1170   1.401   1_556  A
C1165      H1172   1.083       .  S
C1166      C1167   1.405       .  A
C1167      C1168   1.390   1_556  A
C1167      F1174   1.358       .  S
C1168      C1169   1.401       .  A
C1168      H1173   1.084       .  S
C1169      C1170   1.407       .  A
C1170      F1171   1.357       .  S
C1175      C1176   1.406       .  A
C1175      C1180   1.400       .  A
C1175      H1182   1.083       .  S
C1176      C1177   1.411       .  A
C1177      C1178   1.396       .  A
C1177      F1184   1.357       .  S
C1178      C1179   1.402       .  A
C1178      H1183   1.084   1_655  S
C1179      C1180   1.406       .  A
C1180      F1181   1.357       .  S
C1185      C1186   1.402       .  A
C1185      C1190   1.396       .  A
C1185      H1192   1.083       .  S
C1186      C1187   1.410       .  A
C1187      C1188   1.404       .  A
C1187      F1194   1.357       .  S
C1188      C1189   1.407       .  A
C1188      H1193   1.083       .  S
C1189      C1190   1.412       .  A
C1190      F1191   1.356       .  S
C1195      C1196   1.401       .  A
C1195      C1200   1.391   1_554  A
C1195      H1202   1.084       .  S
C1196      C1197   1.405       .  A
C1197      C1198   1.398   1_554  A
C1197      F1204   1.357       .  S
C1198      C1199   1.405       .  A
C1198      H1203   1.083       .  S
C1199      C1200   1.409       .  A
C1200      F1201   1.358       .  S
C1205      C1206   1.408       .  A
C1205      C1210   1.393       .  A
C1205      H1212   1.083       .  S
C1206      C1207   1.408       .  A
C1207      C1208   1.397       .  A
C1207      F1214   1.357       .  S
C1208      C1209   1.404   1_655  A
C1208      H1213   1.083       .  S
C1209      C1210   1.403   1_455  A
C1210      F1211   1.358   1_655  S
C1215      C1216   1.401       .  A
C1215      C1220   1.397       .  A
C1215      H1222   1.083       .  S
C1216      C1217   1.405       .  A
C1217      C1218   1.393       .  A
C1217      F1224   1.359       .  S
C1218      C1219   1.403       .  A
C1218      H1223   1.084       .  S
C1219      C1220   1.405       .  A
C1220      F1221   1.357       .  S
C1225      C1226   1.408       .  A
C1225      C1230   1.403       .  A
C1225      H1232   1.083       .  S
C1226      C1227   1.410       .  A
C1227      C1228   1.400       .  A
C1227      F1234   1.357   1_565  S
C1228      C1229   1.405       .  A
C1228      H1233   1.083   1_565  S
C1229      C1230   1.406       .  A
C1230      F1231   1.357       .  S
C1235      C1236   1.407       .  A
C1235      C1240   1.401       .  A
C1235      H1242   1.083       .  S
C1236      C1237   1.401       .  A
C1237      C1238   1.392       .  A
C1237      F1244   1.358       .  S
C1238      C1239   1.410       .  A
C1238      H1243   1.083       .  S
C1239      C1240   1.409       .  A
C1240      F1241   1.357       .  S
C1245      C1246   1.401       .  A
C1245      C1250   1.398       .  A
C1245      H1252   1.084       .  S
C1246      C1247   1.405       .  A
C1247      C1248   1.397       .  A
C1247      F1254   1.358       .  S
C1248      C1249   1.407       .  A
C1248      H1253   1.083       .  S
C1249      C1250   1.412       .  A
C1250      F1251   1.357       .  S
C1255      C1256   1.406       .  A
C1255      C1260   1.405       .  A
C1255      H1262   1.083       .  S
C1256      C1257   1.410       .  A
C1257      C1258   1.397       .  A
C1257      F1264   1.357   1_565  S
C1258      C1259   1.403       .  A
C1258      H1263   1.083   1_565  S
C1259      C1260   1.411       .  A
C1260      F1261   1.358       .  S
C1265      C1266   1.404       .  A
C1265      C1270   1.405       .  A
C1265      H1272   1.083       .  S
C1266      C1267   1.411       .  A
C1267      C1268   1.410       .  A
C1267      F1274   1.357       .  S
C1268      C1269   1.407       .  A
C1268      H1273   1.083       .  S
C1269      C1270   1.414       .  A
C1270      F1271   1.357       .  S
C1275      C1276   1.400       .  A
C1275      C1280   1.397       .  A
C1275      H1282   1.084       .  S
C1276      C1277   1.409       .  A
C1277      C1278   1.416       .  A
C1277      F1284   1.357       .  S
C1278      C1279   1.413       .  A
C1278      H1283   1.083       .  S
C1279      C1280   1.415       .  A
C1280      F1281   1.355       .  S
C1285      C1286   1.405   1_565  A
C1285      C1290   1.401       .  A
C1285      H1292   1.083   1_565  S
C1286      C1287   1.407   1_544  A
C1287      C1288   1.394       .  A
C1287      F1294   1.358   1_565  S
C1288      C1289   1.406   1_556  A
C1288      H1293   1.083       .  S
C1289      C1290   1.409       .  A
C1290      F1291   1.357       .  S
C1295      C1296   1.398       .  A
C1295      C1300   1.390       .  A
C1295      H1302   1.084       .  S
C1296      C1297   1.402       .  A
C1297      C1298   1.396       .  A
C1297      F1304   1.358       .  S
C1298      C1299   1.407       .  A
C1298      H1303   1.083       .  S
C1299      C1300   1.412       .  A
C1300      F1301   1.358       .  S
C1305      C1306   1.398       .  A
C1305      C1310   1.393       .  A
C1305      H1312   1.084       .  S
C1306      C1307   1.408       .  A
C1307      C1308   1.396       .  A
C1307      F1314   1.358       .  S
C1308      C1309   1.405       .  A
C1308      H1313   1.083       .  S
C1309      C1310   1.414       .  A
C1310      F1311   1.356       .  S
C1315      C1316   1.403   1_565  A
C1315      C1320   1.392       .  A
C1315      H1322   1.083   1_565  S
C1316      C1317   1.410   1_544  A
C1317      C1318   1.402       .  A
C1317      F1324   1.357   1_565  S
C1318      C1319   1.405   1_556  A
C1318      H1323   1.083       .  S
C1319      C1320   1.409       .  A
C1320      F1321   1.358       .  S
C1325      C1326   1.404       .  A
C1325      C1330   1.404       .  A
C1325      H1332   1.083       .  S
C1326      C1327   1.403       .  A
C1327      C1328   1.396       .  A
C1327      F1334   1.358       .  S
C1328      C1329   1.409       .  A
C1328      H1333   1.083       .  S
C1329      C1330   1.413       .  A
C1330      F1331   1.357       .  S
C1335      C1336   1.408       .  A
C1335      C1340   1.397       .  A
C1335      H1342   1.083       .  S
C1336      C1337   1.412       .  A
C1337      C1338   1.399       .  A
C1337      F1344   1.357       .  S
C1338      C1339   1.402       .  A
C1338      H1343   1.083       .  S
C1339      C1340   1.404       .  A
C1340      F1341   1.358       .  S
