geometry optimzed in LAMMPS
_audit_creation_date              2020-11-30 
_audit_creation_method            'lammps2cif' 
_symmetry_space_group_name_H-M    'P1' 
_symmetry_Int_Tables_number       1 
_symmetry_cell_setting            triclinic 
loop_ 
_symmetry_equiv_pos_as_xyz 
  x,y,z 
_cell_length_a                    29.69291404 
_cell_length_b                    30.74994890777849 
_cell_length_c                    55.99728750588333 
_cell_angle_alpha                 90.03003953172771 
_cell_angle_beta                  90.08046504194483 
_cell_angle_gamma                 90.55916408735416 
loop_ 
_atom_site_label 
_atom_site_type_symbol 
_atom_site_fract_x 
_atom_site_fract_y 
_atom_site_fract_z 
_atom_site_charge 
C1          C  0.49967532  0.45000995  0.76644487     0.87900
C2          C  0.45731277  0.45733831  0.75102775    -0.52300
C3          C  0.45656925  0.99640672  0.73928643     0.10900
C4          C  0.49951290  0.02416804  0.74344518     0.21800
C5          C  0.03803662  0.45518165  0.74825420    -0.53000
C6          C  0.03850992  0.99402326  0.73640674     0.11000
C7          C  0.50343954  0.49005158  0.78254083    -0.52600
C8          C  0.00347297  0.02863494  0.77067375     0.11500
H9          H  0.43150422  0.43270173  0.74810651     0.16000
H10         H  0.49975251  0.05594774  0.73408091     0.01800
H11         H  0.06281423  0.43017378  0.74487051     0.16300
H12         H  0.50601902  0.48800916  0.80188313     0.16100
O13         O  0.29411365  0.49637171  0.66414051    -0.70300
O14         O  0.20822474  0.50458561  0.61423651    -0.70600
O15         O  0.29798970  0.50662555  0.61675913    -0.70400
O16         O  0.20390874  0.49413413  0.66138731    -0.70400
O17         O  0.20398358  0.06371587  0.66760185    -0.70400
O18         O  0.29398652  0.07690846  0.61948124    -0.70400
O19         O  0.20376131  0.07414137  0.61990404    -0.70300
O20         O  0.29574966  0.06681895  0.66724375    -0.70500
V21         V  0.25106997  0.50185457  0.63927745     1.35200
V22         V  0.24945515  0.06915011  0.64359666     1.35200
C23         C  0.31057639  0.03018895  0.67366247     0.78900
C24         C  0.19089912  0.04055508  0.60864724     0.79000
C25         C  0.31123329  0.04367781  0.60995942     0.78800
C26         C  0.18710504  0.02648831  0.67182997     0.78800
O27         O  0.20288692  0.48983184  0.33480989    -0.70300
O28         O  0.28846691  0.49770873  0.38505673    -0.70600
O29         O  0.19878263  0.49765725  0.38247171    -0.70400
O30         O  0.29316145  0.48958110  0.33771610    -0.70400
O31         O  0.29227080  0.05950031  0.33244443    -0.70400
O32         O  0.20238929  0.06803749  0.38057210    -0.70400
O33         O  0.29246890  0.06756533  0.38021454    -0.70300
O34         O  0.20087334  0.06042430  0.33289195    -0.70500
V35         V  0.24578377  0.49506245  0.35985735     1.35200
V36         V  0.24695540  0.06259174  0.35648615     1.35200
C37         C  0.18625142  0.02385790  0.32588845     0.78900
C38         C  0.30534989  0.03396378  0.39118442     0.79000
C39         C  0.18554738  0.03413530  0.38989509     0.78800
C40         C  0.30945887  0.02297161  0.32772058     0.78800
O41         O  0.03898999  0.44583640  0.02456222    -0.70300
O42         O  0.04426884  0.03439380  0.97742755    -0.70600
O43         O  0.03926905  0.03291560  0.02548583    -0.70400
O44         O  0.04378209  0.44704862  0.97659524    -0.70400
O45         O  0.47072660  0.44521856  0.97553833    -0.70400
O46         O  0.46650521  0.03376468  0.02264381    -0.70400
O47         O  0.47147216  0.03244182  0.97473589    -0.70300
O48         O  0.46605386  0.44680006  0.02329178    -0.70500
V49         V  0.04021508  0.49005472  0.00097742     1.35200
V50         V  0.47012767  0.48962674  0.99905255     1.35200
C51         C  0.50165136  0.43152089  0.03221987     0.78900
C52         C  0.50867307  0.04827749  0.96778557     0.79000
C53         C  0.50202174  0.04788275  0.03255652     0.78800
C54         C  0.50787056  0.43108485  0.96792750     0.78800
O55         O  0.02817845  0.28640641  0.16112336    -0.70300
O56         O  0.03034253  0.19494493  0.11589638    -0.70600
O57         O  0.03096387  0.28223049  0.11360298    -0.70400
O58         O  0.02721614  0.19939863  0.16373102    -0.70400
O59         O  0.45419636  0.19898809  0.16202510    -0.70400
O60         O  0.45801801  0.28244040  0.11238969    -0.70400
O61         O  0.45743656  0.19497431  0.11418984    -0.70300
O62         O  0.45521690  0.28632308  0.16003794    -0.70500
V63         V  0.02774355  0.24068328  0.13856115     1.35200
V64         V  0.45759673  0.24061298  0.13720764     1.35200
C65         C  0.49152195  0.30253862  0.16807777     0.78900
C66         C  0.49441305  0.17932810  0.10714741     0.79000
C67         C  0.49512877  0.29720794  0.10474303     0.78800
C68         C  0.48996087  0.18469829  0.17125163     0.78800
C69         C  0.49349835  0.45325025  0.23194050     0.87900
C70         C  0.03530494  0.45795200  0.24805306    -0.52300
C71         C  0.03806434  0.99624984  0.26049247     0.10900
C72         C  0.49686447  0.02571799  0.25649428     0.21800
C73         C  0.45460683  0.45845112  0.24974972    -0.53000
C74         C  0.45599775  0.99648814  0.26231008     0.11000
C75         C  0.49281734  0.49444691  0.21666802    -0.52600
C76         C  0.49430388  0.03210700  0.22943696     0.11500
H77         H  0.05958382  0.43213273  0.25032245     0.16000
H78         H  0.49759450  0.05690871  0.26644327     0.01800
H79         H  0.42887037  0.43386565  0.25306383     0.16300
H80         H  0.49050173  0.49388480  0.19728137     0.16100
O81         O  0.47498469  0.19446238  0.88551684    -0.70300
O82         O  0.47171362  0.28372863  0.83918940    -0.70600
O83         O  0.47372671  0.19647059  0.83769750    -0.70400
O84         O  0.47331845  0.28146216  0.88700362    -0.70400
O85         O  0.04623622  0.28554119  0.88543986    -0.70400
O86         O  0.04681291  0.19664873  0.83842792    -0.70400
O87         O  0.04462736  0.28435278  0.83757664    -0.70300
O88         O  0.04788786  0.19804697  0.88631378    -0.70500
V89         V  0.47487003  0.23907239  0.86231635     1.35200
V90         V  0.04503386  0.24111212  0.86189632     1.35200
C91         C  0.01171906  0.18119292  0.89411156     0.78900
C92         C  0.00746243  0.29960562  0.83049251     0.79000
C93         C  0.01042916  0.18118509  0.83012428     0.78800
C94         C  0.00971747  0.29834836  0.89449090     0.78800
O95         O  0.04361840  0.08195250  0.52377986    -0.70300
O96         O  0.45354213  0.07996794  0.47508810    -0.70600
O97         O  0.45318169  0.08298168  0.52325908    -0.70400
O98         O  0.04386181  0.07940489  0.47555795    -0.70400
O99         O  0.04127128  0.00893938  0.47626575    -0.70400
O100        O  0.45341986  0.01243912  0.52488821    -0.70400
O101        O  0.45157694  0.00960116  0.47707272    -0.70300
O102        O  0.04287928  0.01148267  0.52403471    -0.70500
V103        V  0.49853487  0.07982361  0.49942893     1.35200
V104        V  0.49728514  0.01206932  0.50052896     1.35200
C105        C  0.05836336  0.04672420  0.53237629     0.78900
C106        C  0.43731028  0.04415562  0.46769171     0.79000
C107        C  0.43876278  0.04817081  0.53263865     0.78800
C108        C  0.05752752  0.04347499  0.46747720     0.78800
C109        C  0.45106502  0.35664578  0.19380843     0.25000
C110        C  0.49155787  0.34003769  0.18474308    -0.23100
C111        C  0.03220944  0.36142095  0.19059148     0.19900
C112        C  0.03250082  0.39764678  0.20556889     0.25000
C113        C  0.49240483  0.41256183  0.21622223    -0.23000
C114        C  0.45133963  0.39292704  0.20887994     0.19900
F115        F  0.41098993  0.41013820  0.21481615    -0.13000
F116        F  0.41077710  0.33863093  0.18761097    -0.15300
F117        F  0.07216662  0.41931059  0.20855951    -0.15300
F118        F  0.07197211  0.34845318  0.18112721    -0.13000
C119        C  0.02578605  0.10527789  0.21912316     0.25000
C120        C  0.49047620  0.07476710  0.21782939    -0.23100
C121        C  0.45261168  0.08345368  0.20371987     0.19900
C122        C  0.45123069  0.12084208  0.18973255     0.25000
C123        C  0.48822343  0.14980928  0.18931554    -0.23000
C124        C  0.02486949  0.14254470  0.20479093     0.19900
F125        F  0.06020180  0.17088262  0.20561605    -0.13000
F126        F  0.06223824  0.09769673  0.23313307    -0.15300
F127        F  0.41484952  0.12709650  0.17546743    -0.15300
F128        F  0.41750345  0.05484408  0.20291974    -0.13000
C129        C  0.05129136  0.10072995  0.94124070     0.25000
C130        C  0.51014655  0.08208712  0.94884115    -0.23100
C131        C  0.46996575  0.09613213  0.93807202     0.19900
C132        C  0.47071898  0.12802511  0.92039157     0.25000
C133        C  0.01170929  0.14692004  0.91282143    -0.23000
C134        C  0.05205538  0.13276641  0.92343968     0.19900
F135        F  0.09239551  0.14996579  0.91675495    -0.13000
F136        F  0.09096948  0.08818643  0.95101817    -0.15300
F137        F  0.43082831  0.14024555  0.91073069    -0.15300
F138        F  0.42944216  0.07906798  0.94455290    -0.13000
C139        C  0.47305070  0.33524145  0.92924069     0.25000
C140        C  0.00959632  0.33212108  0.91338325    -0.23100
C141        C  0.04600371  0.36152744  0.91583061     0.19900
C142        C  0.04570638  0.39345607  0.93366697     0.25000
C143        C  0.50895280  0.39675288  0.94937539    -0.23000
C144        C  0.47274276  0.36716377  0.94702375     0.19900
F145        F  0.43733405  0.36840603  0.96232195    -0.13000
F146        F  0.43789386  0.30676002  0.92792588    -0.15300
F147        F  0.08083195  0.42195425  0.93507723    -0.15300
F148        F  0.08145074  0.36022167  0.90055764    -0.13000
C149        C  0.45820900  0.37936237  0.05822055     0.25000
C150        C  0.49972264  0.39770934  0.05106781    -0.23100
C151        C  0.03948524  0.38327955  0.06212831     0.19900
C152        C  0.03794362  0.35069574  0.07945214     0.25000
C153        C  0.49659201  0.33164505  0.08623479    -0.23000
C154        C  0.45666404  0.34673266  0.07556818     0.19900
F155        F  0.41585527  0.33003542  0.08184133    -0.13000
F156        F  0.41883747  0.39277443  0.04844225    -0.15300
F157        F  0.07720800  0.33826698  0.08973030    -0.15300
F158        F  0.08017577  0.40087592  0.05641243    -0.13000
C159        C  0.45640118  0.12975679  0.07725312     0.25000
C160        C  0.49593830  0.14424128  0.08883775    -0.23100
C161        C  0.03729746  0.12554602  0.08225516     0.19900
C162        C  0.03924939  0.09433272  0.06411199     0.25000
C163        C  0.49989034  0.08073667  0.05205498    -0.23000
C164        C  0.45834662  0.09850636  0.05910336     0.19900
F165        F  0.41929306  0.08599971  0.04835892    -0.13000
F166        F  0.41561328  0.14608086  0.08322738    -0.15300
F167        F  0.07996196  0.07746638  0.05845637    -0.15300
F168        F  0.07624067  0.13733268  0.09334737    -0.13000
C169        C  0.35614439  0.07750480  0.41846641     0.25000
C170        C  0.33900500  0.03689940  0.41079012    -0.23100
C171        C  0.35412292  0.99899094  0.42225187     0.19900
C172        C  0.38564634  0.00152111  0.44071903     0.25000
C173        C  0.40300095  0.04207071  0.44836294    -0.23000
C174        C  0.38777497  0.08004878  0.43699635     0.19900
F175        F  0.40354941  0.11983967  0.44365089    -0.13000
F176        F  0.34232551  0.11502427  0.40813467    -0.15300
F177        F  0.39917165  0.96384132  0.45100155    -0.15300
F178        F  0.33860278  0.95906839  0.41564146    -0.13000
C179        C  0.14031215  0.99916095  0.42248080     0.25000
C180        C  0.15226459  0.03673793  0.40947530    -0.23100
C181        C  0.13332139  0.07680173  0.41601331     0.19900
C182        C  0.10306163  0.07920237  0.43504942     0.25000
C183        C  0.09094226  0.04155381  0.44793390    -0.23000
C184        C  0.11010511  0.00155090  0.44145031     0.19900
F185        F  0.10003915  0.46445241  0.45356560    -0.13000
F186        F  0.15827477  0.45986426  0.41717814    -0.15300
F187        F  0.08524763  0.11843197  0.44057896    -0.15300
F188        F  0.14371054  0.11380455  0.40391398    -0.13000
C189        C  0.35755854  0.04921557  0.29347667     0.25000
C190        C  0.34858319  0.01866150  0.31163029    -0.23100
C191        C  0.37760075  0.48303459  0.31444781     0.19900
C192        C  0.41361775  0.47713903  0.29893861     0.25000
C193        C  0.42158602  0.00665711  0.28034599    -0.23000
C194        C  0.39392261  0.04318124  0.27789384     0.19900
F195        F  0.40066603  0.07165536  0.25969612    -0.13000
F196        F  0.33011734  0.08375755  0.29016511    -0.15300
F197        F  0.44066515  0.44218188  0.30192313    -0.15300
F198        F  0.37134494  0.45379882  0.33234034    -0.13000
C199        C  0.07052943  0.02943471  0.29817629     0.25000
C200        C  0.07686565  0.00683829  0.27653676    -0.23100
C201        C  0.12069367  0.49285106  0.27066998     0.19900
C202        C  0.15639661  0.49884059  0.28665797     0.25000
C203        C  0.14964663  0.02065583  0.30827822    -0.23000
C204        C  0.10685908  0.03690876  0.31368595     0.19900
F205        F  0.09974781  0.05797131  0.33464674    -0.13000
F206        F  0.02893911  0.04222947  0.30509687    -0.15300
F207        F  0.19778857  0.48360636  0.28095155    -0.15300
F208        F  0.12932431  0.47362827  0.24935222    -0.13000
C209        C  0.14460431  0.08291200  0.57901244     0.25000
C210        C  0.15660158  0.04288185  0.58937882    -0.23100
C211        C  0.13576562  0.00456398  0.58092321     0.19900
C212        C  0.10413010  0.00604481  0.56252618     0.25000
C213        C  0.09229971  0.04594279  0.55192359    -0.23000
C214        C  0.11279071  0.08443246  0.56049852     0.19900
F215        F  0.10239451  0.12363244  0.55092554    -0.13000
F216        F  0.16414606  0.12065316  0.58646406    -0.15300
F217        F  0.08482879  0.96800497  0.55533735    -0.15300
F218        F  0.14544459  0.96527996  0.59063632    -0.13000
C219        C  0.40778083  0.01489669  0.56960927     0.25000
C220        C  0.40678692  0.04867095  0.55271893    -0.23100
C221        C  0.37546262  0.08235348  0.55543029     0.19900
C222        C  0.34493827  0.08160322  0.57448297     0.25000
C223        C  0.34548093  0.04721365  0.59104668    -0.23000
C224        C  0.37743915  0.01414192  0.58851892     0.19900
F225        F  0.37959414  0.98102888  0.60451120    -0.13000
F226        F  0.43872915  0.98277450  0.56808564    -0.15300
F227        F  0.31359006  0.11332562  0.57607737    -0.15300
F228        F  0.37323286  0.11503278  0.53918344    -0.13000
C229        C  0.47493369  0.13830292  0.79670035     0.25000
C230        C  0.01085398  0.14482660  0.81282286    -0.23100
C231        C  0.04612148  0.11455716  0.81335067     0.19900
C232        C  0.04442153  0.07757482  0.79890042     0.25000
C233        C  0.00784009  0.07043484  0.78344177    -0.23000
C234        C  0.47370046  0.10151208  0.78194291     0.19900
F235        F  0.43797131  0.09502480  0.76716153    -0.13000
F236        F  0.44072289  0.16718591  0.79545869    -0.15300
F237        F  0.07809745  0.04810774  0.80036541    -0.15300
F238        F  0.08108830  0.11940387  0.82881370    -0.13000
C239        C  0.04510393  0.35692137  0.80524909     0.25000
C240        C  0.00551954  0.33594776  0.81304723    -0.23100
C241        C  0.46375342  0.35232579  0.80543889     0.19900
C242        C  0.46160879  0.38838589  0.79031570     0.25000
C243        C  0.00128700  0.40830387  0.78140590    -0.23000
C244        C  0.04301496  0.39306753  0.79018056     0.19900
F245        F  0.08211750  0.41456417  0.78541452    -0.13000
F246        F  0.08613424  0.34380378  0.81300735    -0.15300
F247        F  0.42038146  0.40539817  0.78614451    -0.15300
F248        F  0.42443959  0.33468330  0.81339127    -0.13000
C249        C  0.08627189  0.47352761  0.70163911     0.25000
C250        C  0.07381610  0.00480322  0.71859559    -0.23100
C251        C  0.09748316  0.04462956  0.71945442     0.19900
C252        C  0.13417233  0.05227936  0.70416015     0.25000
C253        C  0.14778469  0.02007008  0.68784441    -0.23000
C254        C  0.12278422  0.48091634  0.68655304     0.19900
F255        F  0.13327507  0.44949648  0.67049263    -0.13000
F256        F  0.06286430  0.43553671  0.69956399    -0.15300
F257        F  0.15710113  0.09056482  0.70586379    -0.15300
F258        F  0.08651307  0.07530413  0.73583051    -0.13000
C259        C  0.42678741  0.53016617  0.70131214     0.25000
C260        C  0.41860484  0.00903916  0.72325862    -0.23100
C261        C  0.37374636  0.99822538  0.72935604     0.19900
C262        C  0.33845214  0.00620826  0.71341266     0.25000
C263        C  0.34691937  0.02642747  0.69144284    -0.23000
C264        C  0.39112168  0.53915944  0.68566984     0.19900
F265        F  0.40006674  0.55805267  0.66425907    -0.13000
F266        F  0.46943449  0.53979223  0.69425005    -0.15300
F267        F  0.29586996  0.99391833  0.71934987    -0.15300
F268        F  0.36389292  0.97986212  0.75078827    -0.13000
C269        C  0.49967743  0.95001025  0.76644949     0.87900
C270        C  0.45731380  0.95733570  0.75103315    -0.52300
C271        C  0.45657023  0.49641075  0.73928223     0.10900
C272        C  0.49951380  0.52417079  0.74344324     0.21800
C273        C  0.03803917  0.95518227  0.74825842    -0.53000
C274        C  0.03850963  0.49402437  0.73640419     0.11000
C275        C  0.50344267  0.99005352  0.78254401    -0.52600
C276        C  0.00347122  0.52863315  0.77067074     0.11500
H277        H  0.43150730  0.93269776  0.74811273     0.16000
H278        H  0.49975502  0.55595165  0.73408007     0.01800
H279        H  0.06281740  0.93017458  0.74487546     0.16300
H280        H  0.50602320  0.98801310  0.80188632     0.16100
O281        O  0.29411058  0.99634599  0.66414315    -0.70300
O282        O  0.20822986  0.00456067  0.61423466    -0.70600
O283        O  0.29799577  0.00659727  0.61676141    -0.70400
O284        O  0.20390512  0.99411195  0.66138574    -0.70400
O285        O  0.20398229  0.56373786  0.66760398    -0.70400
O286        O  0.29398060  0.57693649  0.61948062    -0.70400
O287        O  0.20375414  0.57416580  0.61990598    -0.70300
O288        O  0.29574906  0.56684434  0.66724339    -0.70500
V289        V  0.25107119  0.00182902  0.63927779     1.35200
V290        V  0.24945150  0.56917531  0.64359740     1.35200
C291        C  0.31057850  0.53021430  0.67366057     0.78900
C292        C  0.19089175  0.54057906  0.60864942     0.79000
C293        C  0.31122666  0.54370639  0.60995768     0.78800
C294        C  0.18710712  0.52650886  0.67183217     0.78800
O295        O  0.20288839  0.98984870  0.33480941    -0.70300
O296        O  0.28847100  0.99771598  0.38505518    -0.70600
O297        O  0.19878625  0.99766942  0.38247114    -0.70400
O298        O  0.29316230  0.98959231  0.33771465    -0.70400
O299        O  0.29225977  0.55948779  0.33244121    -0.70400
O300        O  0.20238770  0.56802517  0.38057306    -0.70400
O301        O  0.29246634  0.56755690  0.38021143    -0.70300
O302        O  0.20086254  0.56040711  0.33289329    -0.70500
V303        V  0.24578628  0.99507456  0.35985644     1.35200
V304        V  0.24694904  0.56257915  0.35648513     1.35200
C305        C  0.18624445  0.52383924  0.32588971     0.78900
C306        C  0.30534599  0.53395759  0.39118393     0.79000
C307        C  0.18554574  0.53412343  0.38989637     0.78800
C308        C  0.30945208  0.52296036  0.32771916     0.78800
O309        O  0.03899136  0.94583633  0.02456164    -0.70300
O310        O  0.04427301  0.53439756  0.97743039    -0.70600
O311        O  0.03927375  0.53291608  0.02548871    -0.70400
O312        O  0.04378437  0.94704436  0.97659473    -0.70400
O313        O  0.47072784  0.94521425  0.97553757    -0.70400
O314        O  0.46650832  0.53376647  0.02264565    -0.70400
O315        O  0.47147425  0.53244553  0.97473785    -0.70300
O316        O  0.46605315  0.94679845  0.02329096    -0.70500
V317        V  0.04021371  0.99005254  0.00097564     1.35200
V318        V  0.47012649  0.98962389  0.99905114     1.35200
C319        C  0.50165079  0.93152160  0.03222007     0.78900
C320        C  0.50867554  0.54828035  0.96778753     0.79000
C321        C  0.50202518  0.54788301  0.03255857     0.78800
C322        C  0.50787250  0.93107948  0.96792808     0.78800
O323        O  0.02818631  0.78640764  0.16112693    -0.70300
O324        O  0.03035081  0.69495024  0.11589768    -0.70600
O325        O  0.03097115  0.78223589  0.11360649    -0.70400
O326        O  0.02722462  0.69939872  0.16373223    -0.70400
O327        O  0.45419828  0.69898959  0.16202580    -0.70400
O328        O  0.45801849  0.78244243  0.11239074    -0.70400
O329        O  0.45743845  0.69497618  0.11419081    -0.70300
O330        O  0.45521801  0.78632582  0.16003890    -0.70500
V331        V  0.02775151  0.74068640  0.13856364     1.35200
V332        V  0.45759803  0.74061505  0.13720864     1.35200
C333        C  0.49152315  0.80254170  0.16807856     0.78900
C334        C  0.49441524  0.67933093  0.10714807     0.79000
C335        C  0.49512898  0.79721113  0.10474444     0.78800
C336        C  0.48996302  0.68469806  0.17125121     0.78800
C337        C  0.49350426  0.95325491  0.23194125     0.87900
C338        C  0.03532082  0.95796582  0.24805202    -0.52300
C339        C  0.03805394  0.49623616  0.26049318     0.10900
C340        C  0.49685793  0.52571436  0.25649263     0.21800
C341        C  0.45461637  0.95845268  0.24975319    -0.53000
C342        C  0.45598804  0.49648673  0.26230623     0.11000
C343        C  0.49281671  0.99445235  0.21666947    -0.52600
C344        C  0.49430359  0.53210234  0.22943487     0.11500
H345        H  0.05960422  0.93215071  0.25032155     0.16000
H346        H  0.49758757  0.55690511  0.26644144     0.01800
H347        H  0.42888157  0.93386647  0.25306796     0.16300
H348        H  0.49049720  0.99389140  0.19728289     0.16100
O349        O  0.47498998  0.69445631  0.88551518    -0.70300
O350        O  0.47171754  0.78372463  0.83918976    -0.70600
O351        O  0.47373053  0.69646730  0.83769610    -0.70400
O352        O  0.47332407  0.78145562  0.88700372    -0.70400
O353        O  0.04624800  0.78553290  0.88543852    -0.70400
O354        O  0.04682250  0.69664421  0.83842413    -0.70400
O355        O  0.04463814  0.78434818  0.83757516    -0.70300
O356        O  0.04789885  0.69803896  0.88631022    -0.70500
V357        V  0.47487471  0.73906738  0.86231570     1.35200
V358        V  0.04504473  0.74110571  0.86189373     1.35200
C359        C  0.01172978  0.68118652  0.89410863     0.78900
C360        C  0.00747303  0.79960107  0.83049145     0.79000
C361        C  0.01043813  0.68118147  0.83012069     0.78800
C362        C  0.00972942  0.79834011  0.89448982     0.78800
O363        O  0.04361532  0.58196198  0.52377619    -0.70300
O364        O  0.45353900  0.57997532  0.47508577    -0.70600
O365        O  0.45317667  0.58299780  0.52325638    -0.70400
O366        O  0.04385613  0.57940414  0.47555484    -0.70400
O367        O  0.04126702  0.50893895  0.47626839    -0.70400
O368        O  0.45341164  0.51245542  0.52488798    -0.70400
O369        O  0.45157507  0.50960875  0.47707283    -0.70300
O370        O  0.04287019  0.51149242  0.52403722    -0.70500
V371        V  0.49853090  0.57983474  0.49942722     1.35200
V372        V  0.49728041  0.51208069  0.50053064     1.35200
C373        C  0.05835772  0.54673517  0.53237563     0.78900
C374        C  0.43730723  0.54416193  0.46769085     0.79000
C375        C  0.43875560  0.54818866  0.53263686     0.78800
C376        C  0.05752369  0.54347240  0.46747749     0.78800
C377        C  0.45106819  0.85664732  0.19381154     0.25000
C378        C  0.49155989  0.84004244  0.18474299    -0.23100
C379        C  0.03222169  0.86141749  0.19059766     0.19900
C380        C  0.03251576  0.89764450  0.20557428     0.25000
C381        C  0.49240944  0.91256690  0.21622233    -0.23000
C382        C  0.45134386  0.89292878  0.20888309     0.19900
F383        F  0.41099424  0.91013647  0.21482251    -0.13000
F384        F  0.41078023  0.83862882  0.18761741    -0.15300
F385        F  0.07218508  0.91930084  0.20856732    -0.15300
F386        F  0.07198512  0.84844067  0.18113811    -0.13000
C387        C  0.02578689  0.60527270  0.21912391     0.25000
C388        C  0.49047685  0.57476177  0.21782600    -0.23100
C389        C  0.45261845  0.58344282  0.20371066     0.19900
C390        C  0.45123842  0.62083128  0.18972345     0.25000
C391        C  0.48822552  0.64980535  0.18931286    -0.23000
C392        C  0.02487271  0.64254042  0.20479211     0.19900
F393        F  0.06020247  0.67088089  0.20562110    -0.13000
F394        F  0.06223430  0.59769373  0.23313768    -0.15300
F395        F  0.41486470  0.62707907  0.17545201    -0.15300
F396        F  0.41751520  0.55482804  0.20290496    -0.13000
C397        C  0.05129941  0.60072757  0.94124018     0.25000
C398        C  0.51015001  0.58208810  0.94884233    -0.23100
C399        C  0.46996976  0.59613085  0.93807183     0.19900
C400        C  0.47072388  0.62802033  0.92038964     0.25000
C401        C  0.01171911  0.64691625  0.91281968    -0.23000
C402        C  0.05206496  0.63276015  0.92343711     0.19900
F403        F  0.09240628  0.64995305  0.91674944    -0.13000
F404        F  0.09097733  0.58818099  0.95101662    -0.15300
F405        F  0.43083373  0.64023828  0.91072716    -0.15300
F406        F  0.42944591  0.57906757  0.94455288    -0.13000
C407        C  0.47304617  0.83524596  0.92923467     0.25000
C408        C  0.00960783  0.83211127  0.91338327    -0.23100
C409        C  0.04602198  0.86150804  0.91583727     0.19900
C410        C  0.04572233  0.89343685  0.93367359     0.25000
C411        C  0.50895684  0.89674465  0.94937716    -0.23000
C412        C  0.47273725  0.86716834  0.94701767     0.19900
F413        F  0.43731685  0.86842332  0.96230784    -0.13000
F414        F  0.43787803  0.80677877  0.92791198    -0.15300
F415        F  0.08085565  0.92192505  0.93509009    -0.15300
F416        F  0.08147856  0.86019302  0.90057086    -0.13000
C417        C  0.45820748  0.87937520  0.05822754     0.25000
C418        C  0.49972234  0.89771160  0.05106879    -0.23100
C419        C  0.03949154  0.88326958  0.06212260     0.19900
C420        C  0.03795095  0.85068727  0.07944730     0.25000
C421        C  0.49659183  0.83164845  0.08623632    -0.23000
C422        C  0.45666259  0.84674596  0.07557539     0.19900
F423        F  0.41585256  0.83005968  0.08185473    -0.13000
F424        F  0.41883446  0.89279804  0.04845547    -0.15300
F425        F  0.07721808  0.83824707  0.08971817    -0.15300
F426        F  0.08018387  0.90085344  0.05639899    -0.13000
C427        C  0.45640406  0.62975600  0.07725541     0.25000
C428        C  0.49594128  0.64424360  0.08883870    -0.23100
C429        C  0.03730618  0.62555241  0.08225584     0.19900
C430        C  0.03925748  0.59433835  0.06411300     0.25000
C431        C  0.49989407  0.58073722  0.05205687    -0.23000
C432        C  0.45834983  0.59850477  0.05910613     0.19900
F433        F  0.41929590  0.58599513  0.04836306    -0.13000
F434        F  0.41561561  0.64607762  0.08323062    -0.15300
F435        F  0.07997031  0.57747447  0.05845567    -0.15300
F436        F  0.07625028  0.63734204  0.09334628    -0.13000
C437        C  0.35614703  0.57750269  0.41846089     0.25000
C438        C  0.33899945  0.53689678  0.41079044    -0.23100
C439        C  0.35410694  0.49899127  0.42225918     0.19900
C440        C  0.38563062  0.50152447  0.44072615     0.25000
C441        C  0.40299589  0.54207427  0.44836303    -0.23000
C442        C  0.38777779  0.58004971  0.43699070     0.19900
F443        F  0.40356073  0.61984084  0.44363922    -0.13000
F444        F  0.34233642  0.61501974  0.40812332    -0.15300
F445        F  0.39914473  0.46384732  0.45101585    -0.15300
F446        F  0.33857535  0.45906864  0.41565635    -0.13000
C447        C  0.14029607  0.49914869  0.42247687     0.25000
C448        C  0.15226470  0.53672793  0.40947737    -0.23100
C449        C  0.13333957  0.57679614  0.41602226     0.19900
C450        C  0.10307953  0.57919861  0.43505797     0.25000
C451        C  0.09094094  0.54154758  0.44793534    -0.23000
C452        C  0.11008809  0.50154040  0.44144602     0.19900
F453        F  0.10007331  0.96446570  0.45357634    -0.13000
F454        F  0.15830691  0.95988085  0.41718801    -0.15300
F455        F  0.08528577  0.61843360  0.44059464    -0.15300
F456        F  0.14374801  0.61380254  0.40393071    -0.13000
C457        C  0.35753762  0.54920065  0.29346916     0.25000
C458        C  0.34857460  0.51865271  0.31162757    -0.23100
C459        C  0.37759875  0.98303422  0.31444697     0.19900
C460        C  0.41361612  0.97713557  0.29893846     0.25000
C461        C  0.42157642  0.50665480  0.28034210    -0.23000
C462        C  0.39390115  0.54316934  0.27788563     0.19900
F463        F  0.40063272  0.57163589  0.25968314    -0.13000
F464        F  0.33008473  0.58373271  0.29015369    -0.15300
F465        F  0.44065320  0.94217011  0.30192004    -0.15300
F466        F  0.37133224  0.95379200  0.33233533    -0.13000
C467        C  0.07052268  0.52942201  0.29817627     0.25000
C468        C  0.07685595  0.50681910  0.27653847    -0.23100
C469        C  0.12070566  0.99288057  0.27066583     0.19900
C470        C  0.15640846  0.99887167  0.28665367     0.25000
C471        C  0.14963816  0.52063371  0.30828017    -0.23000
C472        C  0.10685298  0.53689493  0.31368579     0.19900
F473        F  0.09974432  0.55796530  0.33464450    -0.13000
F474        F  0.02893430  0.54222524  0.30509526    -0.15300
F475        F  0.19780308  0.98364649  0.28094528    -0.15300
F476        F  0.12933797  0.97366545  0.24934617    -0.13000
C477        C  0.14456490  0.58293550  0.57902722     0.25000
C478        C  0.15659316  0.54290312  0.58938078    -0.23100
C479        C  0.13578916  0.50457943  0.58091083     0.19900
C480        C  0.10415681  0.50605680  0.56251225     0.25000
C481        C  0.09229502  0.54595723  0.55192282    -0.23000
C482        C  0.11275338  0.58445251  0.56051201     0.19900
F483        F  0.10232470  0.62365553  0.55095307    -0.13000
F484        F  0.16407176  0.62068344  0.58649367    -0.15300
F485        F  0.08489183  0.46800982  0.55530793    -0.15300
F486        F  0.14549808  0.46529140  0.59061024    -0.13000
C487        C  0.40776883  0.51491731  0.56960662     0.25000
C488        C  0.40677943  0.54869253  0.55271688    -0.23100
C489        C  0.37546058  0.58237973  0.55542918     0.19900
C490        C  0.34493640  0.58163250  0.57448207     0.25000
C491        C  0.34547438  0.54724154  0.59104499    -0.23000
C492        C  0.37742797  0.51416579  0.58851640     0.19900
F493        F  0.37957912  0.48105137  0.60450800    -0.13000
F494        F  0.43871225  0.48279080  0.56808246    -0.15300
F495        F  0.31359317  0.61335931  0.57607746    -0.15300
F496        F  0.37323599  0.61506082  0.53918318    -0.13000
C497        C  0.47493745  0.63830349  0.79669743     0.25000
C498        C  0.01086094  0.64482454  0.81281841    -0.23100
C499        C  0.04613079  0.61455741  0.81334256     0.19900
C500        C  0.04442722  0.57757438  0.79889302     0.25000
C501        C  0.00784009  0.57043214  0.78343867    -0.23000
C502        C  0.47370245  0.60151236  0.78194042     0.19900
F503        F  0.43797417  0.59502733  0.76715815    -0.13000
F504        F  0.44072904  0.66718893  0.79545479    -0.15300
F505        F  0.07810528  0.54810899  0.80035438    -0.15300
F506        F  0.08110370  0.61940695  0.82880143    -0.13000
C507        C  0.04511247  0.85692474  0.80525299     0.25000
C508        C  0.00552921  0.83594483  0.81304766    -0.23100
C509        C  0.46375611  0.85232581  0.80544274     0.19900
C510        C  0.46161120  0.88838826  0.79032148     0.25000
C511        C  0.00129285  0.90830596  0.78141077    -0.23000
C512        C  0.04302140  0.89307332  0.79018642     0.19900
F513        F  0.08212191  0.91457523  0.78542268    -0.13000
F514        F  0.08614311  0.84381057  0.81301256    -0.15300
F515        F  0.42038416  0.90540327  0.78615272    -0.15300
F516        F  0.42444248  0.83468300  0.81339525    -0.13000
C517        C  0.08626785  0.97351720  0.70164124     0.25000
C518        C  0.07381903  0.50480856  0.71859581    -0.23100
C519        C  0.09748627  0.54463469  0.71945887     0.19900
C520        C  0.13417574  0.55228971  0.70416554     0.25000
C521        C  0.14778791  0.52008587  0.68784663    -0.23000
C522        C  0.12278022  0.98090071  0.68655429     0.19900
F523        F  0.13327075  0.94947577  0.67049680    -0.13000
F524        F  0.06285971  0.93552595  0.69956968    -0.15300
F525        F  0.15710479  0.59057446  0.70587304    -0.15300
F526        F  0.08651585  0.57530379  0.73583800    -0.13000
C527        C  0.42678369  0.03015511  0.70131533     0.25000
C528        C  0.41860689  0.50904861  0.72325486    -0.23100
C529        C  0.37374733  0.49824071  0.72935273     0.19900
C530        C  0.33845319  0.50623097  0.71341039     0.25000
C531        C  0.34692180  0.52645097  0.69144087    -0.23000
C532        C  0.39111759  0.03914200  0.68567232     0.19900
F533        F  0.40006101  0.05803520  0.66426136    -0.13000
F534        F  0.46942975  0.03978551  0.69425329    -0.15300
F535        F  0.29586957  0.49394663  0.71934808    -0.15300
F536        F  0.36389284  0.47987638  0.75078452    -0.13000
C537        C  0.99967362  0.45000853  0.76644492     0.87900
C538        C  0.95731134  0.45733693  0.75102762    -0.52300
C539        C  0.95656959  0.99640632  0.73928625     0.10900
C540        C  0.99951306  0.02416794  0.74344556     0.21800
C541        C  0.53803810  0.45518391  0.74825411    -0.53000
C542        C  0.53850909  0.99402310  0.73640603     0.11000
C543        C  0.00343817  0.49005054  0.78254055    -0.52600
C544        C  0.50347376  0.02863526  0.77067322     0.11500
H545        H  0.93150279  0.43270035  0.74810647     0.16000
H546        H  0.99975290  0.05594773  0.73408137     0.01800
H547        H  0.56281587  0.43017639  0.74486998     0.16300
H548        H  0.00601771  0.48800857  0.80188298     0.16100
O549        O  0.79411237  0.49637358  0.66414062    -0.70300
O550        O  0.70822324  0.50458854  0.61423687    -0.70600
O551        O  0.79798839  0.50662684  0.61675926    -0.70400
O552        O  0.70390788  0.49413757  0.66138764    -0.70400
O553        O  0.70398272  0.06371597  0.66760149    -0.70400
O554        O  0.79398558  0.07690890  0.61948091    -0.70400
O555        O  0.70376037  0.07414166  0.61990363    -0.70300
O556        O  0.79574905  0.06681907  0.66724344    -0.70500
V557        V  0.75106879  0.50185698  0.63927764     1.35200
V558        V  0.74945432  0.06915038  0.64359634     1.35200
C559        C  0.81057539  0.03018898  0.67366237     0.78900
C560        C  0.69089920  0.04055549  0.60864636     0.79000
C561        C  0.81123254  0.04367822  0.60995920     0.78800
C562        C  0.68710371  0.02648849  0.67182926     0.78800
O563        O  0.70288577  0.48983935  0.33480868    -0.70300
O564        O  0.78846411  0.49771194  0.38505645    -0.70600
O565        O  0.69877999  0.49766292  0.38247049    -0.70400
O566        O  0.79316009  0.48958622  0.33771580    -0.70400
O567        O  0.79227059  0.05949471  0.33244457    -0.70400
O568        O  0.70238902  0.06803142  0.38057203    -0.70400
O569        O  0.79246867  0.06756136  0.38021458    -0.70300
O570        O  0.70087329  0.06041663  0.33289194    -0.70500
V571        V  0.74578180  0.49506787  0.35985660     1.35200
V572        V  0.74695522  0.06258585  0.35648620     1.35200
C573        C  0.68625180  0.02384981  0.32588881     0.78900
C574        C  0.80535093  0.03396046  0.39118465     0.79000
C575        C  0.68554830  0.03412927  0.38989561     0.78800
C576        C  0.80945913  0.02296625  0.32772079     0.78800
O577        O  0.53899219  0.44583631  0.02456118    -0.70300
O578        O  0.54426965  0.03439467  0.97742715    -0.70600
O579        O  0.53927101  0.03291702  0.02548546    -0.70400
O580        O  0.54378250  0.44704867  0.97659402    -0.70400
O581        O  0.97072626  0.44522043  0.97553860    -0.70400
O582        O  0.96650329  0.03376219  0.02264362    -0.70400
O583        O  0.97147145  0.03243961  0.97473572    -0.70300
O584        O  0.96605174  0.44680102  0.02329196    -0.70500
V585        V  0.54021547  0.49005458  0.00097631     1.35200
V586        V  0.97012735  0.48962817  0.99905308     1.35200
C587        C  0.00164865  0.43152132  0.03222040     0.78900
C588        C  0.00867225  0.04827597  0.96778570     0.79000
C589        C  0.00201932  0.04788080  0.03255661     0.78800
C590        C  0.00787016  0.43108554  0.96792833     0.78800
O591        O  0.52818376  0.28640638  0.16112424    -0.70300
O592        O  0.53034797  0.19494614  0.11589652    -0.70600
O593        O  0.53096968  0.28223183  0.11360370    -0.70400
O594        O  0.52722111  0.19939842  0.16373121    -0.70400
O595        O  0.95419137  0.19898731  0.16202489    -0.70400
O596        O  0.95801217  0.28243952  0.11238928    -0.70400
O597        O  0.95743114  0.19497323  0.11418948    -0.70300
O598        O  0.95521154  0.28632234  0.16003756    -0.70500
V599        V  0.52774898  0.24068389  0.13856164     1.35200
V600        V  0.95759128  0.24061208  0.13720729     1.35200
C601        C  0.99151664  0.30253841  0.16807704     0.78900
C602        C  0.99440769  0.17932685  0.10714721     0.79000
C603        C  0.99512291  0.29720694  0.10474253     0.78800
C604        C  0.98995610  0.18469830  0.17125157     0.78800
C605        C  0.99349456  0.45324878  0.23194076     0.87900
C606        C  0.53530812  0.45795597  0.24805304    -0.52300
C607        C  0.53806388  0.99624661  0.26049173     0.10900
C608        C  0.99686368  0.02571907  0.25649467     0.21800
C609        C  0.95460367  0.45845166  0.24975020    -0.53000
C610        C  0.95599821  0.99648702  0.26230986     0.11000
C611        C  0.99281574  0.49444564  0.21666843    -0.52600
C612        C  0.99430421  0.03210822  0.22943735     0.11500
H613        H  0.55958833  0.43213804  0.25032323     0.16000
H614        H  0.99759177  0.05690962  0.26644391     0.01800
H615        H  0.92886628  0.43386754  0.25306492     0.16300
H616        H  0.99049941  0.49388391  0.19728184     0.16100
O617        O  0.97498342  0.19446184  0.88551769    -0.70300
O618        O  0.97171165  0.28372839  0.83919045    -0.70600
O619        O  0.97372501  0.19647027  0.83769832    -0.70400
O620        O  0.97331712  0.28146177  0.88700467    -0.70400
O621        O  0.54623765  0.28554156  0.88543900    -0.70400
O622        O  0.54681455  0.19664911  0.83842696    -0.70400
O623        O  0.54462935  0.28435315  0.83757585    -0.70300
O624        O  0.54788914  0.19804724  0.88631295    -0.70500
V625        V  0.97486845  0.23907202  0.86231732     1.35200
V626        V  0.54503545  0.24111241  0.86189547     1.35200
C627        C  0.51172022  0.18119347  0.89411081     0.78900
C628        C  0.50746453  0.29960600  0.83049163     0.79000
C629        C  0.51043075  0.18118551  0.83012330     0.78800
C630        C  0.50971873  0.29834871  0.89448989     0.78800
O631        O  0.54361990  0.08195137  0.52377785    -0.70300
O632        O  0.95354442  0.07996911  0.47508790    -0.70600
O633        O  0.95318015  0.08298205  0.52325890    -0.70400
O634        O  0.54385948  0.07940250  0.47555604    -0.70400
O635        O  0.54126979  0.00893694  0.47626513    -0.70400
O636        O  0.95342061  0.01243955  0.52488852    -0.70400
O637        O  0.95157857  0.00960239  0.47707305    -0.70300
O638        O  0.54287854  0.01148160  0.52403396    -0.70500
V639        V  0.99853533  0.07982490  0.49942982     1.35200
V640        V  0.99728633  0.01207061  0.50052947     1.35200
C641        C  0.55836445  0.04672318  0.53237457     0.78900
C642        C  0.93731242  0.04415672  0.46769165     0.79000
C643        C  0.93876189  0.04817096  0.53263849     0.78800
C644        C  0.55752555  0.04347222  0.46747595     0.78800
C645        C  0.95106029  0.35664137  0.19381063     0.25000
C646        C  0.99155263  0.34003762  0.18474225    -0.23100
C647        C  0.53221549  0.36141707  0.19059507     0.19900
C648        C  0.53250694  0.39764366  0.20557193     0.25000
C649        C  0.99239980  0.41256076  0.21622213    -0.23000
C650        C  0.95133475  0.39292208  0.20888256     0.19900
F651        F  0.91098450  0.41012886  0.21482148    -0.13000
F652        F  0.91077276  0.33862247  0.18761597    -0.15300
F653        F  0.57217405  0.41930434  0.20856429    -0.15300
F654        F  0.57197923  0.34844476  0.18113398    -0.13000
C655        C  0.52578861  0.10527546  0.21912255     0.25000
C656        C  0.99047486  0.07476820  0.21782989    -0.23100
C657        C  0.95261009  0.08345332  0.20372028     0.19900
C658        C  0.95122778  0.12084149  0.18973284     0.25000
C659        C  0.98821945  0.14980993  0.18931583    -0.23000
C660        C  0.52487340  0.14254245  0.20479043     0.19900
F661        F  0.56020685  0.17087900  0.20561551    -0.13000
F662        F  0.56224072  0.09769277  0.23313223    -0.15300
F663        F  0.91484665  0.12709428  0.17546746    -0.15300
F664        F  0.91750297  0.05484245  0.20292011    -0.13000
C665        C  0.55129247  0.10072899  0.94123920     0.25000
C666        C  0.01014572  0.08208566  0.94884134    -0.23100
C667        C  0.96996522  0.09612829  0.93807096     0.19900
C668        C  0.97071837  0.12802151  0.92039065     0.25000
C669        C  0.51171026  0.14692101  0.91282092    -0.23000
C670        C  0.55205655  0.13276518  0.92343803     0.19900
F671        F  0.59239704  0.14996192  0.91675191    -0.13000
F672        F  0.59097090  0.08818312  0.95101536    -0.15300
F673        F  0.93082800  0.14023935  0.91072839    -0.15300
F674        F  0.92944204  0.07906141  0.94455041    -0.13000
C675        C  0.97304630  0.33524634  0.92923923     0.25000
C676        C  0.50959723  0.33212140  0.91338212    -0.23100
C677        C  0.54600066  0.36153305  0.91582665     0.19900
C678        C  0.54570310  0.39346159  0.93366306     0.25000
C679        C  0.00895231  0.39675295  0.94937647    -0.23000
C680        C  0.97273859  0.36716868  0.94702225     0.19900
F681        F  0.93732589  0.36841586  0.96231769    -0.13000
F682        F  0.93788519  0.30677029  0.92792179    -0.15300
F683        F  0.58082433  0.42196521  0.93507063    -0.15300
F684        F  0.58144344  0.36023267  0.90055073    -0.13000
C685        C  0.95820457  0.37936402  0.05822112     0.25000
C686        C  0.99971876  0.39770953  0.05106814    -0.23100
C687        C  0.53948941  0.38328105  0.06212842     0.19900
C688        C  0.53794861  0.35069750  0.07945249     0.25000
C689        C  0.99658656  0.33164450  0.08623458    -0.23000
C690        C  0.95665883  0.34673387  0.07556851     0.19900
F691        F  0.91584968  0.33003804  0.08184203    -0.13000
F692        F  0.91883329  0.39277799  0.04844333    -0.15300
F693        F  0.57721316  0.33827022  0.08973103    -0.15300
F694        F  0.58017939  0.40087891  0.05641277    -0.13000
C695        C  0.95639699  0.12975738  0.07725146     0.25000
C696        C  0.99593328  0.14423977  0.08883765    -0.23100
C697        C  0.53730266  0.12554976  0.08225364     0.19900
C698        C  0.53925381  0.09433661  0.06411037     0.25000
C699        C  0.99988690  0.08073482  0.05205503    -0.23000
C700        C  0.95834321  0.09850676  0.05910176     0.19900
F701        F  0.91929057  0.08600239  0.04835559    -0.13000
F702        F  0.91560932  0.14608407  0.08322398    -0.15300
F703        F  0.57996655  0.07747258  0.05845301    -0.15300
F704        F  0.57624678  0.13733854  0.09334431    -0.13000
C705        C  0.85615573  0.07750256  0.41846113     0.25000
C706        C  0.83900639  0.03689750  0.41079028    -0.23100
C707        C  0.85411484  0.99899078  0.42225739     0.19900
C708        C  0.88563861  0.00152215  0.44072434     0.25000
C709        C  0.90300308  0.04207124  0.44836284    -0.23000
C710        C  0.88778668  0.08004773  0.43699094     0.19900
F711        F  0.90357160  0.11983799  0.44363979    -0.13000
F712        F  0.84234705  0.11502047  0.40812375    -0.15300
F713        F  0.89915363  0.96384390  0.45101246    -0.15300
F714        F  0.83858403  0.95906872  0.41565302    -0.13000
C715        C  0.64032215  0.99915816  0.42248583     0.25000
C716        C  0.65226537  0.03673237  0.40947562    -0.23100
C717        C  0.63331216  0.07679444  0.41600838     0.19900
C718        C  0.60305117  0.07919606  0.43504387     0.25000
C719        C  0.59094075  0.04155021  0.44793298    -0.23000
C720        C  0.61011374  0.00154907  0.44145473     0.19900
F721        F  0.60003963  0.46445760  0.45356525    -0.13000
F722        F  0.65827227  0.45986945  0.41717655    -0.15300
F723        F  0.58522639  0.11842354  0.44056794    -0.15300
F724        F  0.64369199  0.11379433  0.40390416    -0.13000
C725        C  0.85755865  0.04921210  0.29347733     0.25000
C726        C  0.84858310  0.01865668  0.31163025    -0.23100
C727        C  0.87759909  0.48303682  0.31444800     0.19900
C728        C  0.91361586  0.47714001  0.29893883     0.25000
C729        C  0.92158553  0.00665398  0.28034556    -0.23000
C730        C  0.89392262  0.04317865  0.27789435     0.19900
F731        F  0.90066667  0.07165436  0.25969743    -0.13000
F732        F  0.83011793  0.08375477  0.29016671    -0.15300
F733        F  0.94066047  0.44218060  0.30192259    -0.15300
F734        F  0.87134065  0.45379978  0.33233965    -0.13000
C735        C  0.57053077  0.02943120  0.29817542     0.25000
C736        C  0.57686579  0.00683296  0.27653629    -0.23100
C737        C  0.62069499  0.49286157  0.27066834     0.19900
C738        C  0.65639809  0.49885251  0.28665603     0.25000
C739        C  0.64964686  0.02064713  0.30827850    -0.23000
C740        C  0.60686042  0.03690370  0.31368530     0.19900
F741        F  0.59974999  0.05796867  0.33464547    -0.13000
F742        F  0.52894144  0.04222975  0.30509545    -0.15300
F743        F  0.69779091  0.48362132  0.28094888    -0.15300
F744        F  0.62932611  0.47364065  0.24935012    -0.13000
C745        C  0.64459719  0.08291301  0.57901463     0.25000
C746        C  0.65660286  0.04288193  0.58937719    -0.23100
C747        C  0.63577678  0.00456258  0.58091677     0.19900
C748        C  0.60414223  0.00604301  0.56251932     0.25000
C749        C  0.59230224  0.04594208  0.55192118    -0.23000
C750        C  0.61278419  0.08443306  0.56050039     0.19900
F751        F  0.60237876  0.12363421  0.55093175    -0.13000
F752        F  0.66412916  0.12065588  0.58647071    -0.15300
F753        F  0.58485168  0.96800129  0.55532555    -0.15300
F754        F  0.64546483  0.96527699  0.59062527    -0.13000
C755        C  0.90777987  0.01489718  0.56960910     0.25000
C756        C  0.90678523  0.04867072  0.55271838    -0.23100
C757        C  0.87546000  0.08235259  0.55542923     0.19900
C758        C  0.84493589  0.08160263  0.57448201     0.25000
C759        C  0.84547968  0.04721397  0.59104628    -0.23000
C760        C  0.87743840  0.01414266  0.58851882     0.19900
F761        F  0.87959428  0.98103044  0.60451158    -0.13000
F762        F  0.93872898  0.98277567  0.56808586    -0.15300
F763        F  0.81358680  0.11332430  0.57607598    -0.15300
F764        F  0.87322922  0.11503089  0.53918184    -0.13000
C765        C  0.97493704  0.13830617  0.79669845     0.25000
C766        C  0.51085512  0.14482737  0.81282157    -0.23100
C767        C  0.54612658  0.11456188  0.81334600     0.19900
C768        C  0.54442609  0.07757922  0.79889599     0.25000
C769        C  0.50784039  0.07043533  0.78344080    -0.23000
C770        C  0.97370430  0.10151546  0.78194081     0.19900
F771        F  0.93797919  0.09503228  0.76715620    -0.13000
F772        F  0.94073015  0.16719304  0.79545385    -0.15300
F773        F  0.57810555  0.04811540  0.80035793    -0.15300
F774        F  0.58109831  0.11941264  0.82880555    -0.13000
C775        C  0.54510622  0.35692182  0.80524826     0.25000
C776        C  0.50552178  0.33594835  0.81304649    -0.23100
C777        C  0.96375116  0.35232485  0.80543937     0.19900
C778        C  0.96160657  0.38838471  0.79031594     0.25000
C779        C  0.50128914  0.40830493  0.78140553    -0.23000
C780        C  0.54301722  0.39306818  0.79017984     0.19900
F781        F  0.58211984  0.41456454  0.78541361    -0.13000
F782        F  0.58613658  0.34380384  0.81300625    -0.15300
F783        F  0.92037920  0.40539657  0.78614432    -0.15300
F784        F  0.92443734  0.33468208  0.81339161    -0.13000
C785        C  0.58627013  0.47353298  0.70163821     0.25000
C786        C  0.57381479  0.00480316  0.71859471    -0.23100
C787        C  0.59748212  0.04462935  0.71945377     0.19900
C788        C  0.63417109  0.05227932  0.70415945     0.25000
C789        C  0.64778309  0.02007032  0.68784347    -0.23000
C790        C  0.62278198  0.48092205  0.68655195     0.19900
F791        F  0.63327019  0.44950400  0.67048996    -0.13000
F792        F  0.56286064  0.43554337  0.69956202    -0.15300
F793        F  0.65709992  0.09056473  0.70586326    -0.15300
F794        F  0.58651267  0.07530351  0.73583021    -0.13000
C795        C  0.92678595  0.53016843  0.70131283     0.25000
C796        C  0.91860478  0.00903866  0.72325841    -0.23100
C797        C  0.87374658  0.99822222  0.72935521     0.19900
C798        C  0.83845215  0.00620501  0.71341191     0.25000
C799        C  0.84691853  0.02642717  0.69144279    -0.23000
C800        C  0.89112021  0.53916297  0.68567080     0.19900
F801        F  0.90006497  0.55805983  0.66426096    -0.13000
F802        F  0.96943280  0.53979643  0.69425112    -0.15300
F803        F  0.79587052  0.99391224  0.71934857    -0.15300
F804        F  0.86389353  0.97985658  0.75078687    -0.13000
C805        C  0.99967744  0.95000981  0.76644963     0.87900
C806        C  0.95731444  0.95733513  0.75103275    -0.52300
C807        C  0.95656919  0.49640920  0.73928188     0.10900
C808        C  0.99951315  0.52416880  0.74344274     0.21800
C809        C  0.53803838  0.95518200  0.74825765    -0.53000
C810        C  0.53851061  0.49402705  0.73640453     0.11000
C811        C  0.00344148  0.99005294  0.78254427    -0.52600
C812        C  0.50347200  0.52863453  0.77067127     0.11500
H813        H  0.93150868  0.93269658  0.74811125     0.16000
H814        H  0.99975480  0.55594958  0.73407956     0.01800
H815        H  0.56281543  0.93017399  0.74487383     0.16300
H816        H  0.00602134  0.98801207  0.80188673     0.16100
O817        O  0.79410909  0.99634610  0.66414317    -0.70300
O818        O  0.70823019  0.00456124  0.61423387    -0.70600
O819        O  0.79799555  0.00659769  0.61676143    -0.70400
O820        O  0.70390366  0.99411217  0.66138492    -0.70400
O821        O  0.70398274  0.56374137  0.66760420    -0.70400
O822        O  0.79398071  0.57693791  0.61948044    -0.70400
O823        O  0.70375419  0.57416893  0.61990619    -0.70300
O824        O  0.79574946  0.56684626  0.66724321    -0.70500
V825        V  0.75107046  0.00182935  0.63927742     1.35200
V826        V  0.74945172  0.56917782  0.64359741     1.35200
C827        C  0.81057791  0.53021596  0.67366057     0.78900
C828        C  0.69089079  0.54058231  0.60864989     0.79000
C829        C  0.81122616  0.54370731  0.60995770     0.78800
C830        C  0.68710705  0.52651262  0.67183251     0.78800
O831        O  0.70288915  0.98984117  0.33481030    -0.70300
O832        O  0.78847304  0.99771205  0.38505565    -0.70600
O833        O  0.69878815  0.99766331  0.38247225    -0.70400
O834        O  0.79316325  0.98958683  0.33771507    -0.70400
O835        O  0.79226084  0.55949317  0.33244180    -0.70400
O836        O  0.70238674  0.56803086  0.38057262    -0.70400
O837        O  0.79246543  0.56756026  0.38021212    -0.70300
O838        O  0.70086357  0.56041476  0.33289268    -0.70500
V839        V  0.74578766  0.99506877  0.35985715     1.35200
V840        V  0.74694904  0.56258469  0.35648517     1.35200
C841        C  0.68624465  0.52384749  0.32588864     0.78900
C842        C  0.80534394  0.53396011  0.39118426     0.79000
C843        C  0.68554384  0.53412915  0.38989546     0.78800
C844        C  0.80945233  0.52296543  0.32771956     0.78800
O845        O  0.53899142  0.94583778  0.02456159    -0.70300
O846        O  0.54427176  0.53439732  0.97742926    -0.70600
O847        O  0.53927402  0.53291596  0.02548759    -0.70400
O848        O  0.54378344  0.94704504  0.97659475    -0.70400
O849        O  0.97072883  0.94521218  0.97553718    -0.70400
O850        O  0.96650811  0.53376742  0.02264647    -0.70400
O851        O  0.97147551  0.53244751  0.97473873    -0.70300
O852        O  0.96605309  0.94679585  0.02329069    -0.70500
V853        V  0.54021420  0.99005368  0.00097544     1.35200
V854        V  0.97012605  0.98962154  0.99905090     1.35200
C855        C  0.00165083  0.93151954  0.03221998     0.78900
C856        C  0.00867724  0.54828172  0.96778865     0.79000
C857        C  0.00202501  0.54788346  0.03255958     0.78800
C858        C  0.00787388  0.93107832  0.96792774     0.78800
O859        O  0.52818484  0.78640834  0.16112563    -0.70300
O860        O  0.53034992  0.69495007  0.11589679    -0.70600
O861        O  0.53097012  0.78223574  0.11360523    -0.70400
O862        O  0.52722318  0.69939936  0.16373134    -0.70400
O863        O  0.95419970  0.69898957  0.16202720    -0.70400
O864        O  0.95801953  0.78244227  0.11239202    -0.70400
O865        O  0.95743929  0.69497616  0.11419220    -0.70300
O866        O  0.95521954  0.78632588  0.16004026    -0.70500
V867        V  0.52775030  0.74068662  0.13856254     1.35200
V868        V  0.95759923  0.74061502  0.13721000     1.35200
C869        C  0.99152486  0.80254140  0.16807991     0.78900
C870        C  0.99441596  0.67933109  0.10714918     0.79000
C871        C  0.99512993  0.79721098  0.10474562     0.78800
C872        C  0.98996457  0.68469754  0.17125230     0.78800
C873        C  0.99350854  0.95325614  0.23194143     0.87900
C874        C  0.53531775  0.95796285  0.24805109    -0.52300
C875        C  0.53805467  0.49624043  0.26049287     0.10900
C876        C  0.99685891  0.52571244  0.25649308     0.21800
C877        C  0.95461943  0.95845177  0.24975268    -0.53000
C878        C  0.95598745  0.49648713  0.26230683     0.11000
C879        C  0.99281969  0.99445359  0.21666966    -0.52600
C880        C  0.99430439  0.53210088  0.22943540     0.11500
H881        H  0.55960083  0.93214649  0.25031915     0.16000
H882        H  0.99759044  0.55690330  0.26644194     0.01800
H883        H  0.92888492  0.93386424  0.25306593     0.16300
H884        H  0.99050120  0.99389268  0.19728320     0.16100
O885        O  0.97499427  0.69445595  0.88551500    -0.70300
O886        O  0.97172239  0.78372301  0.83918895    -0.70600
O887        O  0.97373458  0.69646594  0.83769579    -0.70400
O888        O  0.97332892  0.78145502  0.88700284    -0.70400
O889        O  0.54624310  0.78553410  0.88543908    -0.70400
O890        O  0.54681846  0.69664585  0.83842484    -0.70400
O891        O  0.54463326  0.78434946  0.83757578    -0.70300
O892        O  0.54789452  0.69804035  0.88631069    -0.70500
V893        V  0.97487928  0.73906635  0.86231515     1.35200
V894        V  0.54504014  0.74110715  0.86189433     1.35200
C895        C  0.51172565  0.68118694  0.89410867     0.78900
C896        C  0.50746819  0.79960250  0.83049214     0.79000
C897        C  0.51043436  0.68118286  0.83012130     0.78800
C898        C  0.50972457  0.79834092  0.89449056     0.78800
O899        O  0.54361448  0.58196628  0.52377685    -0.70300
O900        O  0.95353812  0.57997191  0.47508613    -0.70600
O901        O  0.95317750  0.58299476  0.52325665    -0.70400
O902        O  0.54385697  0.57940892  0.47555537    -0.70400
O903        O  0.54126875  0.50894370  0.47626876    -0.70400
O904        O  0.95341118  0.51245237  0.52488832    -0.70400
O905        O  0.95157310  0.50960536  0.47707312    -0.70300
O906        O  0.54287048  0.51149668  0.52403760    -0.70500
V907        V  0.99853083  0.57983083  0.49942706     1.35200
V908        V  0.99727930  0.51207680  0.50053062     1.35200
C909        C  0.55835692  0.54673949  0.53237640     0.78900
C910        C  0.93730559  0.54415880  0.46769126     0.79000
C911        C  0.93875595  0.54818592  0.53263724     0.78800
C912        C  0.55752490  0.54347738  0.46747791     0.78800
C913        C  0.95107021  0.85665696  0.19380689     0.25000
C914        C  0.99156231  0.84004238  0.18474422    -0.23100
C915        C  0.53221706  0.86142629  0.19059112     0.19900
C916        C  0.53250969  0.89765242  0.20556845     0.25000
C917        C  0.99241410  0.91256785  0.21622282    -0.23000
C918        C  0.95134748  0.89293893  0.20887807     0.19900
F919        F  0.91099953  0.91015601  0.21481257    -0.13000
F920        F  0.91078086  0.83864799  0.18760707    -0.15300
F921        F  0.57217577  0.91931609  0.20855804    -0.15300
F922        F  0.57197889  0.84845891  0.18112566    -0.13000
C923        C  0.52578426  0.60527512  0.21912393     0.25000
C924        C  0.99047836  0.57476050  0.21782668    -0.23100
C925        C  0.95261921  0.58344279  0.20371212     0.19900
C926        C  0.95123936  0.62083141  0.18972503     0.25000
C927        C  0.98822730  0.64980446  0.18931378    -0.23000
C928        C  0.52486994  0.64254267  0.20479201     0.19900
F929        F  0.56019872  0.67088425  0.20562165    -0.13000
F930        F  0.56223091  0.59769734  0.23313845    -0.15300
F931        F  0.91486479  0.62708036  0.17545434    -0.15300
F932        F  0.91751497  0.55482904  0.20290710    -0.13000
C933        C  0.55129638  0.60072865  0.94124009     0.25000
C934        C  0.01015245  0.58208985  0.94884362    -0.23100
C935        C  0.96997217  0.59613564  0.93807434     0.19900
C936        C  0.97072689  0.62802455  0.92039187     0.25000
C937        C  0.51171544  0.64691550  0.91281902    -0.23000
C938        C  0.55206134  0.63276173  0.92343733     0.19900
F939        F  0.59240208  0.64995758  0.91675090    -0.13000
F940        F  0.59097429  0.58818458  0.95101754    -0.15300
F941        F  0.93083661  0.64024547  0.91073071    -0.15300
F942        F  0.92944752  0.57907624  0.94455700    -0.13000
C943        C  0.97304960  0.83524532  0.92923342     0.25000
C944        C  0.50960357  0.83211206  0.91338396    -0.23100
C945        C  0.54601793  0.86150875  0.91583745     0.19900
C946        C  0.54571925  0.89343754  0.93367374     0.25000
C947        C  0.00895919  0.89674384  0.94937658    -0.23000
C948        C  0.97273965  0.86716763  0.94701641     0.19900
F949        F  0.93731802  0.86842274  0.96230577    -0.13000
F950        F  0.93788139  0.80677833  0.92791018    -0.15300
F951        F  0.58085274  0.92192562  0.93508984    -0.15300
F952        F  0.58147381  0.86019368  0.90057055    -0.13000
C953        C  0.95820758  0.87937620  0.05822950     0.25000
C954        C  0.99972269  0.89770968  0.05106888    -0.23100
C955        C  0.53949069  0.88327390  0.06212400     0.19900
C956        C  0.53794988  0.85069086  0.07944828     0.25000
C957        C  0.99659257  0.83164784  0.08623723    -0.23000
C958        C  0.95666287  0.84674764  0.07557776     0.19900
F959        F  0.91585254  0.83006437  0.08185897    -0.13000
F960        F  0.91883411  0.89280141  0.04845898    -0.15300
F961        F  0.57721633  0.83825325  0.08972085    -0.15300
F962        F  0.58018254  0.90086113  0.05640241    -0.13000
C963        C  0.95640459  0.62975860  0.07725546     0.25000
C964        C  0.99594162  0.64424389  0.08883978    -0.23100
C965        C  0.53730635  0.62555433  0.08225374     0.19900
C966        C  0.53925788  0.59434034  0.06411086     0.25000
C967        C  0.99989398  0.58073755  0.05205795    -0.23000
C968        C  0.95835016  0.59850732  0.05910619     0.19900
F969        F  0.91929653  0.58600004  0.04836202    -0.13000
F970        F  0.91561661  0.64608274  0.08322952    -0.15300
F971        F  0.57997128  0.57747905  0.05845232    -0.15300
F972        F  0.57625074  0.63734621  0.09334318    -0.13000
C973        C  0.85613936  0.57750337  0.41846493     0.25000
C974        C  0.83899718  0.53689762  0.41079098    -0.23100
C975        C  0.85411009  0.49899066  0.42225623     0.19900
C976        C  0.88563399  0.50152243  0.44072322     0.25000
C977        C  0.90299399  0.54207217  0.44836352    -0.23000
C978        C  0.88777028  0.58004897  0.43699471     0.19900
F979        F  0.90354738  0.61984022  0.44364689    -0.13000
F980        F  0.84232282  0.61502168  0.40813104    -0.15300
F981        F  0.89915389  0.46384407  0.45100938    -0.15300
F982        F  0.83858426  0.45906806  0.41564963    -0.13000
C983        C  0.64029465  0.49915408  0.42247594     0.25000
C984        C  0.65226302  0.53673350  0.40947655    -0.23100
C985        C  0.63333844  0.57680175  0.41602188     0.19900
C986        C  0.60307949  0.57920410  0.43505808     0.25000
C987        C  0.59094156  0.54155295  0.44793550    -0.23000
C988        C  0.61008805  0.50154574  0.44144568     0.19900
F989        F  0.60009128  0.96446705  0.45358581    -0.13000
F990        F  0.65832796  0.95988044  0.41719850    -0.15300
F991        F  0.58528622  0.61843911  0.44059519    -0.15300
F992        F  0.64374627  0.61380827  0.40393032    -0.13000
C993        C  0.85754179  0.54920648  0.29347120     0.25000
C994        C  0.84857559  0.51865718  0.31162849    -0.23100
C995        C  0.87759826  0.98302887  0.31444608     0.19900
C996        C  0.91361544  0.97713102  0.29893735     0.25000
C997        C  0.92157707  0.50665674  0.28034309    -0.23000
C998        C  0.89390519  0.54317397  0.27788770     0.19900
F999        F  0.90063963  0.57164199  0.25968619    -0.13000
F1000       F  0.83009201  0.58374116  0.29015669    -0.15300
F1001       F  0.94065247  0.94216531  0.30191825    -0.15300
F1002       F  0.87133164  0.95378549  0.33233386    -0.13000
C1003       C  0.57052224  0.52942716  0.29817592     0.25000
C1004       C  0.57685642  0.50682593  0.27653772    -0.23100
C1005       C  0.62070499  0.99287164  0.27066616     0.19900
C1006       C  0.65640767  0.99886092  0.28665441     0.25000
C1007       C  0.64963872  0.52064315  0.30827889    -0.23000
C1008       C  0.60685255  0.53690120  0.31368532     0.19900
F1009       F  0.59974308  0.55796918  0.33464466    -0.13000
F1010       F  0.52893307  0.54222722  0.30509543    -0.15300
F1011       F  0.69780130  0.98363253  0.28094670    -0.15300
F1012       F  0.62933685  0.97365513  0.24934682    -0.13000
C1013       C  0.64456689  0.58293902  0.57902661     0.25000
C1014       C  0.65659148  0.54290691  0.58938175    -0.23100
C1015       C  0.63578302  0.50458395  0.58091395     0.19900
C1016       C  0.60415044  0.50606157  0.56251551     0.25000
C1017       C  0.59229307  0.54596157  0.55192408    -0.23000
C1018       C  0.61275511  0.58445628  0.56051156     0.19900
F1019       F  0.60233019  0.62365887  0.55095088    -0.13000
F1020       F  0.66407794  0.62068624  0.58649118    -0.15300
F1021       F  0.58488078  0.46801540  0.55531339    -0.15300
F1022       F  0.64548774  0.46529653  0.59061535    -0.13000
C1023       C  0.90776827  0.51491551  0.56960713     0.25000
C1024       C  0.90677982  0.54869054  0.55271727    -0.23100
C1025       C  0.87546171  0.58237844  0.55542937     0.19900
C1026       C  0.84493728  0.58163214  0.57448213     0.25000
C1027       C  0.84547421  0.54724138  0.59104513    -0.23000
C1028       C  0.87742706  0.51416487  0.58851679     0.19900
F1029       F  0.87957722  0.48105065  0.60450854    -0.13000
F1030       F  0.93871095  0.48278828  0.56808316    -0.15300
F1031       F  0.81359473  0.61335961  0.57607725    -0.15300
F1032       F  0.87323807  0.61505937  0.53918326    -0.13000
C1033       C  0.97493863  0.63830212  0.79669753     0.25000
C1034       C  0.51085813  0.64482562  0.81281933    -0.23100
C1035       C  0.54612759  0.61455814  0.81334462     0.19900
C1036       C  0.54442534  0.57757521  0.79889500     0.25000
C1037       C  0.50783980  0.57043330  0.78343952    -0.23000
C1038       C  0.97370238  0.60151097  0.78194054     0.19900
F1039       F  0.93797267  0.59502571  0.76715926    -0.13000
F1040       F  0.94072983  0.66718728  0.79545587    -0.15300
F1041       F  0.57810305  0.54810963  0.80035739    -0.15300
F1042       F  0.58109878  0.61940729  0.82880465    -0.13000
C1043       C  0.54510920  0.85691934  0.80524985     0.25000
C1044       C  0.50552482  0.83594611  0.81304824    -0.23100
C1045       C  0.96375995  0.85231799  0.80543867     0.19900
C1046       C  0.96161332  0.88838092  0.79031789     0.25000
C1047       C  0.50129143  0.90830646  0.78141069    -0.23000
C1048       C  0.54301986  0.89306787  0.79018325     0.19900
F1049       F  0.58212257  0.91456398  0.78541692    -0.13000
F1050       F  0.58613996  0.84379876  0.81300582    -0.15300
F1051       F  0.92038451  0.90538987  0.78614663    -0.15300
F1052       F  0.92444682  0.83466806  0.81338721    -0.13000
C1053       C  0.58626590  0.97351758  0.70164002     0.25000
C1054       C  0.57381976  0.50481217  0.71859633    -0.23100
C1055       C  0.59748933  0.54463692  0.71946098     0.19900
C1056       C  0.63417864  0.55229219  0.70416758     0.25000
C1057       C  0.64778800  0.52009003  0.68784700    -0.23000
C1058       C  0.62277811  0.98090127  0.68655299     0.19900
F1059       F  0.63326818  0.94947676  0.67049519    -0.13000
F1060       F  0.56285742  0.93552655  0.69956825    -0.15300
F1061       F  0.65711060  0.59057510  0.70587674    -0.15300
F1062       F  0.58652133  0.57530405  0.73584171    -0.13000
C1063       C  0.92678281  0.03015716  0.70131574     0.25000
C1064       C  0.91860571  0.50904766  0.72325468    -0.23100
C1065       C  0.87374625  0.49823771  0.72935188     0.19900
C1066       C  0.83845229  0.50622868  0.71340959     0.25000
C1067       C  0.84692075  0.52645197  0.69144099    -0.23000
C1068       C  0.89111636  0.03914418  0.68567286     0.19900
F1069       F  0.90005920  0.05803977  0.66426246    -0.13000
F1070       F  0.96942854  0.03979008  0.69425415    -0.15300
F1071       F  0.79586898  0.49394182  0.71934645    -0.15300
F1072       F  0.86389155  0.47987058  0.75078292    -0.13000
loop_ 
_geom_bond_atom_site_label_1 
_geom_bond_atom_site_label_2 
_geom_bond_distance 
_geom_bond_site_symmetry_2 
_ccdc_geom_bond_type 
C1            C2   1.543       .  S
C1            C7   1.529       .  S
C1          C541   1.536       .  S
C1          C779   1.533       .  S
C2            H9   1.084       .  S
C2          C271   1.370       .  D
C3            C4   1.545   1_565  S
C3          C270   1.370       .  D
C3          C260   1.494   1_565  S
C4          C544   1.535       .  S
C4          C542   1.542   1_545  S
C4           H10   1.109       .  S
C5          C537   1.536   1_455  S
C5           H11   1.086       .  S
C5          C274   1.367       .  D
C6          C540   1.542   1_465  S
C6          C273   1.367       .  D
C6          C250   1.483   1_565  S
C7           H12   1.088       .  S
C7          C812   1.360       .  D
C8          C540   1.535   1_455  S
C8          C811   1.360   1_545  D
C8          C233   1.475       .  S
O13          V21   1.897       .  S
O13         C291   1.263       .  A
O14          V21   1.894       .  S
O14         C292   1.264       .  A
O15          V21   1.885       .  S
O15         C293   1.262       .  A
O16          V21   1.884       .  S
O16         C294   1.262       .  A
O17          V22   1.913       .  S
O17          C26   1.268       .  A
O18          V22   1.905       .  S
O18          C25   1.265       .  A
O19          V22   1.904       .  S
O19          C24   1.265       .  A
O20          V22   1.909       .  S
O20          C23   1.265       .  A
V21         V290   2.085       .  T
V22         V289   2.085       .  T
C23         O281   1.263   1_545  A
C23         C263   1.473       .  S
C24         O282   1.264       .  A
C24         C210   1.485       .  S
C25         O283   1.262       .  A
C25         C223   1.473       .  S
C26         O284   1.262   1_545  A
C26         C253   1.485       .  S
O27          V35   1.899       .  S
O27         C305   1.264       .  A
O28          V35   1.897       .  S
O28         C306   1.265       .  A
O29          V35   1.888       .  S
O29         C307   1.262       .  A
O30          V35   1.885       .  S
O30         C308   1.262       .  A
O31          V36   1.908       .  S
O31          C40   1.266       .  A
O32          V36   1.899       .  S
O32          C39   1.265       .  A
O33          V36   1.899       .  S
O33          C38   1.264       .  A
O34          V36   1.901       .  S
O34          C37   1.263       .  A
V35         V304   2.085       .  T
V36         V303   2.085   1_545  T
C37         O295   1.264   1_545  A
C37         C203   1.469       .  S
C38         O296   1.265   1_545  A
C38         C170   1.486       .  S
C39         O297   1.262   1_545  A
C39         C180   1.480       .  S
C40         O298   1.262   1_545  A
C40         C190   1.478       .  S
O41          V49   1.896       .  S
O41         C587   1.265       .  A
O42         V317   1.900   1_546  S
O42         C588   1.264       .  A
O43         V317   1.903   1_545  S
O43         C589   1.266       .  A
O44          V49   1.904   1_556  S
O44         C590   1.266       .  A
O45          V50   1.897       .  S
O45          C54   1.264       .  A
O46         V318   1.898   1_544  S
O46          C53   1.264       .  A
O47         V318   1.895   1_545  S
O47          C52   1.265       .  A
O48          V50   1.895   1_554  S
O48          C51   1.263       .  A
V49         O310   1.900   1_554  S
V49         O311   1.903       .  S
V49         V586   2.084   1_454  T
V50         O314   1.898   1_556  S
V50         O315   1.895       .  S
V50         V585   2.084   1_556  T
C51         O577   1.265       .  A
C51         C150   1.483       .  S
C52         O578   1.264       .  A
C52         C130   1.486       .  S
C53         O579   1.266       .  A
C53         C163   1.489       .  S
C54         O580   1.266       .  A
C54         C143   1.481       .  S
O55          V63   1.890       .  S
O55         C601   1.263   1_455  A
O56          V63   1.896       .  S
O56         C602   1.264   1_455  A
O57          V63   1.896       .  S
O57         C603   1.265   1_455  A
O58          V63   1.897       .  S
O58         C604   1.264   1_455  A
O59          V64   1.892       .  S
O59          C68   1.263       .  A
O60          V64   1.894       .  S
O60          C67   1.263       .  A
O61          V64   1.905       .  S
O61          C66   1.266       .  A
O62          V64   1.901       .  S
O62          C65   1.265       .  A
V63         V600   2.084   1_455  T
V64         V599   2.084       .  T
C65         O591   1.263       .  A
C65         C110   1.483       .  S
C66         O592   1.264       .  A
C66         C160   1.489       .  S
C67         O593   1.265       .  A
C67         C153   1.482       .  S
C68         O594   1.264       .  A
C68         C123   1.475       .  S
C69          C75   1.529       .  S
C69          C73   1.536       .  S
C69         C606   1.539       .  S
C69         C113   1.529       .  S
C70         C605   1.539   1_455  S
C70          H77   1.085       .  S
C70         C339   1.369       .  D
C71         C608   1.546   1_465  S
C71         C338   1.369       .  D
C71         C200   1.493   1_565  S
C72          C76   1.530       .  S
C72          C74   1.538   1_545  S
C72         C607   1.546   1_545  S
C72          H78   1.109       .  S
C73          H79   1.086       .  S
C73         C342   1.365       .  D
C74         C341   1.365       .  D
C74         C193   1.473   1_565  S
C75          H80   1.088       .  S
C75         C344   1.361       .  D
C76         C343   1.361   1_545  D
C76         C120   1.470       .  S
O81          V89   1.890       .  S
O81         C627   1.263       .  A
O82          V89   1.891       .  S
O82         C628   1.263       .  A
O83          V89   1.901       .  S
O83         C629   1.265       .  A
O84          V89   1.900       .  S
O84         C630   1.265       .  A
O85          V90   1.898       .  S
O85          C94   1.264       .  A
O86          V90   1.897       .  S
O86          C93   1.264       .  A
O87          V90   1.904       .  S
O87          C92   1.267       .  A
O88          V90   1.906       .  S
O88          C91   1.266       .  A
V89         V626   2.084       .  T
V90         V625   2.084   1_455  T
C91         O617   1.263   1_455  A
C91         C133   1.486       .  S
C92         O618   1.263   1_455  A
C92         C240   1.486       .  S
C93         O619   1.265   1_455  A
C93         C230   1.479       .  S
C94         O620   1.265   1_455  A
C94         C140   1.482       .  S
O95         V639   1.910   1_455  S
O95         C105   1.267       .  A
O96         V103   1.907       .  S
O96         C106   1.267       .  A
O97         V103   1.900       .  S
O97         C107   1.264       .  A
O98         V639   1.898   1_455  S
O98         C108   1.264       .  A
O99         V640   1.889   1_455  S
O99         C108   1.263       .  A
O100        V104   1.887       .  S
O100        C107   1.263       .  A
O101        V104   1.888       .  S
O101        C106   1.262       .  A
O102        V640   1.887   1_455  S
O102        C105   1.262       .  A
V103        O631   1.910       .  S
V103        O634   1.898       .  S
V103        V104   2.084       .  T
V104        O635   1.889       .  S
V104        O638   1.887       .  S
C105        C213   1.487       .  S
C106        C173   1.486       .  S
C107        C220   1.473       .  S
C108        C183   1.480       .  S
C109        C110   1.406       .  A
C109        C114   1.399       .  A
C109        F116   1.358       .  S
C110        C647   1.407       .  A
C111        C112   1.394       .  A
C111        C646   1.407   1_455  A
C111        F118   1.358       .  S
C112        C649   1.413   1_455  A
C112        F117   1.358       .  S
C113        C114   1.416       .  A
C113        C648   1.413       .  A
C114        F115   1.356       .  S
C119        C124   1.400       .  A
C119        C656   1.402   1_455  A
C119        F126   1.358       .  S
C120        C121   1.401       .  A
C120        C655   1.402       .  A
C121        C122   1.392       .  A
C121        F128   1.358       .  S
C122        C123   1.408       .  A
C122        F127   1.358       .  S
C123        C660   1.410       .  A
C124        C659   1.410   1_455  A
C124        F125   1.358       .  S
C129        C134   1.402       .  A
C129        C666   1.411       .  A
C129        F136   1.358       .  S
C130        C131   1.408       .  A
C130        C665   1.411       .  A
C131        C132   1.394       .  A
C131        F138   1.358       .  S
C132        C669   1.410       .  A
C132        F137   1.358       .  S
C133        C134   1.409       .  A
C133        C668   1.410   1_455  A
C134        F135   1.358       .  S
C139        C144   1.398       .  A
C139        C676   1.407       .  A
C139        F146   1.358       .  S
C140        C141   1.409       .  A
C140        C675   1.407   1_455  A
C141        C142   1.400       .  A
C141        F148   1.358       .  S
C142        C679   1.407       .  A
C142        F147   1.358       .  S
C143        C144   1.408       .  A
C143        C678   1.407       .  A
C144        F145   1.358       .  S
C149        C150   1.409       .  A
C149        C154   1.397       .  A
C149        F156   1.358       .  S
C150        C687   1.408       .  A
C151        C152   1.395       .  A
C151        C686   1.408   1_455  A
C151        F158   1.358       .  S
C152        C689   1.408   1_455  A
C152        F157   1.358       .  S
C153        C154   1.409       .  A
C153        C688   1.408       .  A
C154        F155   1.358       .  S
C159        C160   1.409       .  A
C159        C164   1.400       .  A
C159        F166   1.358       .  S
C160        C697   1.411       .  A
C161        C162   1.399       .  A
C161        C696   1.411   1_455  A
C161        F168   1.358       .  S
C162        C699   1.409   1_455  A
C162        F167   1.358       .  S
C163        C164   1.411       .  A
C163        C698   1.409       .  A
C164        F165   1.358       .  S
C169        C170   1.410       .  A
C169        C174   1.400       .  A
C169        F176   1.358       .  S
C170        C171   1.408   1_545  A
C171        C172   1.395   1_565  A
C171        F178   1.358       .  S
C172        C173   1.411       .  A
C172        F177   1.358   1_545  S
C173        C174   1.408       .  A
C174        F175   1.358       .  S
C179        C180   1.409   1_565  A
C179        C184   1.394   1_565  A
C179        F454   1.358       .  S
C180        C181   1.408       .  A
C181        C182   1.397       .  A
C181        F188   1.358       .  S
C182        C183   1.408       .  A
C182        F187   1.358       .  S
C183        C184   1.408       .  A
C184        F453   1.358   1_545  S
F185        C452   1.358       .  S
F186        C447   1.358       .  S
C189        C190   1.409       .  A
C189        C194   1.403       .  A
C189        F196   1.358       .  S
C190        C459   1.409   1_545  A
C191        C192   1.392       .  A
C191        C458   1.409       .  A
C191        F198   1.358       .  S
C192        C461   1.401       .  A
C192        F197   1.358       .  S
C193        C194   1.405       .  A
C193        C460   1.401   1_545  A
C194        F195   1.358       .  S
C199        C200   1.410       .  A
C199        C204   1.401       .  A
C199        F206   1.357       .  S
C200        C469   1.414   1_545  A
C201        C202   1.397       .  A
C201        C468   1.414       .  A
C201        F208   1.358       .  S
C202        C471   1.399       .  A
C202        F207   1.358       .  S
C203        C204   1.403       .  A
C203        C470   1.399   1_545  A
C204        F205   1.358       .  S
C209        C210   1.410       .  A
C209        C214   1.403       .  A
C209        F216   1.358       .  S
C210        C211   1.407       .  A
C211        C212   1.394       .  A
C211        F218   1.358   1_545  S
C212        C213   1.411       .  A
C212        F217   1.358   1_545  S
C213        C214   1.409       .  A
C214        F215   1.358       .  S
C219        C220   1.406       .  A
C219        C224   1.391       .  A
C219        F226   1.358   1_545  S
C220        C221   1.407       .  A
C221        C222   1.401       .  A
C221        F228   1.358       .  S
C222        C223   1.407       .  A
C222        F227   1.358       .  S
C223        C224   1.405       .  A
C224        F225   1.358   1_545  S
C229        C234   1.401       .  A
C229        C766   1.409       .  A
C229        F236   1.358       .  S
C230        C231   1.408       .  A
C230        C765   1.409   1_455  A
C231        C232   1.396       .  A
C231        F238   1.358       .  S
C232        C233   1.404       .  A
C232        F237   1.358       .  S
C233        C770   1.402   1_455  A
C234        C769   1.402       .  A
C234        F235   1.358       .  S
C239        C240   1.405       .  A
C239        C244   1.398       .  A
C239        F246   1.358       .  S
C240        C777   1.409   1_455  A
C241        C242   1.397       .  A
C241        C776   1.409       .  A
C241        F248   1.358       .  S
C242        C779   1.414       .  A
C242        F247   1.356       .  S
C243        C537   1.533   1_455  S
C243        C244   1.416       .  A
C243        C778   1.414   1_455  A
C244        F245   1.357       .  S
C249        C254   1.392       .  A
C249        C518   1.404       .  A
C249        F256   1.358       .  S
C250        C251   1.407       .  A
C250        C517   1.404   1_545  A
C251        C252   1.405       .  A
C251        F258   1.357       .  S
C252        C253   1.410       .  A
C252        F257   1.357       .  S
C253        C522   1.410   1_545  A
C254        C521   1.410       .  A
C254        F255   1.358       .  S
C259        C264   1.403       .  A
C259        C528   1.410       .  A
C259        F266   1.357       .  S
C260        C261   1.412   1_545  A
C260        C527   1.410       .  A
C261        C262   1.399   1_565  A
C261        F268   1.358       .  S
C262        C263   1.401       .  A
C262        F267   1.358   1_545  S
C263        C532   1.404       .  A
C264        C531   1.404       .  A
C264        F265   1.358       .  S
C269        C270   1.543       .  S
C269        C275   1.529       .  S
C269        C809   1.536       .  S
C269       C1047   1.533       .  S
C270        H277   1.084       .  S
C271        C272   1.545       .  S
C271        C528   1.494       .  S
C272        C812   1.535       .  S
C272        C810   1.542       .  S
C272        H278   1.109       .  S
C273        C805   1.536   1_455  S
C273        H279   1.086       .  S
C274        C808   1.542   1_455  S
C274        C518   1.483       .  S
C275        H280   1.088       .  S
C275        C544   1.360   1_565  D
C276        C808   1.535   1_455  S
C276        C543   1.360       .  D
C276        C501   1.475       .  S
O281        V289   1.897   1_565  S
O282        V289   1.894       .  S
O283        V289   1.885       .  S
O284        V289   1.884   1_565  S
O285        V290   1.913       .  S
O285        C294   1.268       .  A
O286        V290   1.905       .  S
O286        C293   1.265       .  A
O287        V290   1.904       .  S
O287        C292   1.265       .  A
O288        V290   1.909       .  S
O288        C291   1.265       .  A
C291        C531   1.473       .  S
C292        C478   1.485       .  S
C293        C491   1.473       .  S
C294        C521   1.485       .  S
O295        V303   1.899       .  S
O296        V303   1.897       .  S
O297        V303   1.888       .  S
O298        V303   1.885       .  S
O299        V304   1.908       .  S
O299        C308   1.266       .  A
O300        V304   1.899       .  S
O300        C307   1.265       .  A
O301        V304   1.899       .  S
O301        C306   1.264       .  A
O302        V304   1.901       .  S
O302        C305   1.263       .  A
C305        C471   1.469       .  S
C306        C438   1.486       .  S
C307        C448   1.480       .  S
C308        C458   1.478       .  S
O309        V317   1.896       .  S
O309        C855   1.265       .  A
O310        C856   1.264       .  A
O311        C857   1.266       .  A
O312        V317   1.904   1_556  S
O312        C858   1.266       .  A
O313        V318   1.897       .  S
O313        C322   1.264       .  A
O314        C321   1.264       .  A
O315        C320   1.265       .  A
O316        V318   1.895   1_554  S
O316        C319   1.263       .  A
V317        V854   2.084   1_454  T
V318        V853   2.084   1_556  T
C319        O845   1.265       .  A
C319        C418   1.483       .  S
C320        O846   1.264       .  A
C320        C398   1.486       .  S
C321        O847   1.266       .  A
C321        C431   1.489       .  S
C322        O848   1.266       .  A
C322        C411   1.481       .  S
O323        V331   1.890       .  S
O323        C869   1.263   1_455  A
O324        V331   1.896       .  S
O324        C870   1.264   1_455  A
O325        V331   1.896       .  S
O325        C871   1.265   1_455  A
O326        V331   1.897       .  S
O326        C872   1.264   1_455  A
O327        V332   1.892       .  S
O327        C336   1.263       .  A
O328        V332   1.894       .  S
O328        C335   1.263       .  A
O329        V332   1.905       .  S
O329        C334   1.266       .  A
O330        V332   1.901       .  S
O330        C333   1.265       .  A
V331        V868   2.084   1_455  T
V332        V867   2.084       .  T
C333        O859   1.263       .  A
C333        C378   1.483       .  S
C334        O860   1.264       .  A
C334        C428   1.489       .  S
C335        O861   1.265       .  A
C335        C421   1.482       .  S
C336        O862   1.264       .  A
C336        C391   1.475       .  S
C337        C874   1.539       .  S
C337        C343   1.529       .  S
C337        C341   1.536       .  S
C337        C381   1.529       .  S
C338        C873   1.539   1_455  S
C338        H345   1.085       .  S
C339        C876   1.546   1_455  S
C339        C468   1.493       .  S
C340        C875   1.546       .  S
C340        C344   1.530       .  S
C340        C342   1.538       .  S
C340        H346   1.109       .  S
C341        H347   1.086       .  S
C342        C461   1.473       .  S
C343        H348   1.088       .  S
C344        C388   1.470       .  S
O349        V357   1.890       .  S
O349        C895   1.263       .  A
O350        V357   1.891       .  S
O350        C896   1.263       .  A
O351        V357   1.901       .  S
O351        C897   1.265       .  A
O352        V357   1.900       .  S
O352        C898   1.265       .  A
O353        V358   1.898       .  S
O353        C362   1.264       .  A
O354        V358   1.897       .  S
O354        C361   1.264       .  A
O355        V358   1.904       .  S
O355        C360   1.267       .  A
O356        V358   1.906       .  S
O356        C359   1.266       .  A
V357        V894   2.084       .  T
V358        V893   2.084   1_455  T
C359        O885   1.263   1_455  A
C359        C401   1.486       .  S
C360        O886   1.263   1_455  A
C360        C508   1.486       .  S
C361        O887   1.265   1_455  A
C361        C498   1.479       .  S
C362        O888   1.265   1_455  A
C362        C408   1.482       .  S
O363        V907   1.910   1_455  S
O363        C373   1.267       .  A
O364        V371   1.907       .  S
O364        C374   1.267       .  A
O365        V371   1.900       .  S
O365        C375   1.264       .  A
O366        V907   1.898   1_455  S
O366        C376   1.264       .  A
O367        V908   1.889   1_455  S
O367        C376   1.263       .  A
O368        V372   1.887       .  S
O368        C375   1.263       .  A
O369        V372   1.888       .  S
O369        C374   1.262       .  A
O370        V908   1.887   1_455  S
O370        C373   1.262       .  A
V371        O899   1.910       .  S
V371        O902   1.898       .  S
V371        V372   2.084       .  T
V372        O903   1.889       .  S
V372        O906   1.887       .  S
C373        C481   1.487       .  S
C374        C441   1.486       .  S
C375        C488   1.473       .  S
C376        C451   1.480       .  S
C377        C378   1.406       .  A
C377        C382   1.399       .  A
C377        F384   1.358       .  S
C378        C915   1.407       .  A
C379        C914   1.407   1_455  A
C379        C380   1.394       .  A
C379        F386   1.358       .  S
C380        C917   1.413   1_455  A
C380        F385   1.358       .  S
C381        C916   1.413       .  A
C381        C382   1.416       .  A
C382        F383   1.356       .  S
C387        C924   1.402   1_455  A
C387        C392   1.400       .  A
C387        F394   1.358       .  S
C388        C923   1.402       .  A
C388        C389   1.401       .  A
C389        C390   1.392       .  A
C389        F396   1.358       .  S
C390        C391   1.408       .  A
C390        F395   1.358       .  S
C391        C928   1.410       .  A
C392        C927   1.410   1_455  A
C392        F393   1.358       .  S
C397        C934   1.411       .  A
C397        C402   1.402       .  A
C397        F404   1.358       .  S
C398        C933   1.411       .  A
C398        C399   1.408       .  A
C399        C400   1.394       .  A
C399        F406   1.358       .  S
C400        C937   1.410       .  A
C400        F405   1.358       .  S
C401        C936   1.410   1_455  A
C401        C402   1.409       .  A
C402        F403   1.358       .  S
C407        C944   1.407       .  A
C407        C412   1.398       .  A
C407        F414   1.358       .  S
C408        C943   1.407   1_455  A
C408        C409   1.409       .  A
C409        C410   1.400       .  A
C409        F416   1.358       .  S
C410        C947   1.407       .  A
C410        F415   1.358       .  S
C411        C946   1.407       .  A
C411        C412   1.408       .  A
C412        F413   1.358       .  S
C417        C418   1.409       .  A
C417        C422   1.397       .  A
C417        F424   1.358       .  S
C418        C955   1.408       .  A
C419        C954   1.408   1_455  A
C419        C420   1.395       .  A
C419        F426   1.358       .  S
C420        C957   1.408   1_455  A
C420        F425   1.358       .  S
C421        C956   1.408       .  A
C421        C422   1.409       .  A
C422        F423   1.358       .  S
C427        C428   1.409       .  A
C427        C432   1.400       .  A
C427        F434   1.358       .  S
C428        C965   1.411       .  A
C429        C964   1.411   1_455  A
C429        C430   1.399       .  A
C429        F436   1.358       .  S
C430        C967   1.409   1_455  A
C430        F435   1.358       .  S
C431        C966   1.409       .  A
C431        C432   1.411       .  A
C432        F433   1.358       .  S
C437        C438   1.410       .  A
C437        C442   1.400       .  A
C437        F444   1.358       .  S
C438        C439   1.408       .  A
C439        C440   1.395       .  A
C439        F446   1.358       .  S
C440        C441   1.411       .  A
C440        F445   1.358       .  S
C441        C442   1.408       .  A
C442        F443   1.358       .  S
C447        C448   1.409       .  A
C447        C452   1.394       .  A
C448        C449   1.408       .  A
C449        C450   1.397       .  A
C449        F456   1.358       .  S
C450        C451   1.408       .  A
C450        F455   1.358       .  S
C451        C452   1.408       .  A
C457        C458   1.409       .  A
C457        C462   1.403       .  A
C457        F464   1.358       .  S
C459        C460   1.392       .  A
C459        F466   1.358       .  S
C460        F465   1.358       .  S
C461        C462   1.405       .  A
C462        F463   1.358       .  S
C467        C468   1.410       .  A
C467        C472   1.401       .  A
C467        F474   1.357       .  S
C469        C470   1.397       .  A
C469        F476   1.358       .  S
C470        F475   1.358       .  S
C471        C472   1.403       .  A
C472        F473   1.358       .  S
C477        C478   1.410       .  A
C477        C482   1.403       .  A
C477        F484   1.358       .  S
C478        C479   1.407       .  A
C479        C480   1.394       .  A
C479        F486   1.358       .  S
C480        C481   1.411       .  A
C480        F485   1.358       .  S
C481        C482   1.409       .  A
C482        F483   1.358       .  S
C487        C488   1.406       .  A
C487        C492   1.391       .  A
C487        F494   1.358       .  S
C488        C489   1.407       .  A
C489        C490   1.401       .  A
C489        F496   1.358       .  S
C490        C491   1.407       .  A
C490        F495   1.358       .  S
C491        C492   1.405       .  A
C492        F493   1.358       .  S
C497       C1034   1.409       .  A
C497        C502   1.401       .  A
C497        F504   1.358       .  S
C498       C1033   1.409   1_455  A
C498        C499   1.408       .  A
C499        C500   1.396       .  A
C499        F506   1.358       .  S
C500        C501   1.404       .  A
C500        F505   1.358       .  S
C501       C1038   1.402   1_455  A
C502       C1037   1.402       .  A
C502        F503   1.358       .  S
C507        C508   1.405       .  A
C507        C512   1.398       .  A
C507        F514   1.358       .  S
C508       C1045   1.409   1_455  A
C509       C1044   1.409       .  A
C509        C510   1.397       .  A
C509        F516   1.358       .  S
C510       C1047   1.414       .  A
C510        F515   1.356       .  S
C511        C805   1.533   1_455  S
C511       C1046   1.414   1_455  A
C511        C512   1.416       .  A
C512        F513   1.357       .  S
C517        C522   1.392       .  A
C517        F524   1.358       .  S
C518        C519   1.407       .  A
C519        C520   1.405       .  A
C519        F526   1.357       .  S
C520        C521   1.410       .  A
C520        F525   1.357       .  S
C522        F523   1.358       .  S
C527        C532   1.403       .  A
C527        F534   1.357       .  S
C528        C529   1.412       .  A
C529        C530   1.399       .  A
C529        F536   1.358       .  S
C530        C531   1.401       .  A
C530        F535   1.358       .  S
C532        F533   1.358       .  S
C537        C538   1.543       .  S
C537        C543   1.529   1_655  S
C538        H545   1.084       .  S
C538        C807   1.370       .  D
C539        C540   1.545   1_565  S
C539        C806   1.370       .  D
C539        C796   1.494   1_565  S
C540        H546   1.109       .  S
C541        H547   1.086       .  S
C541        C810   1.367       .  D
C542        C809   1.367       .  D
C542        C786   1.483   1_565  S
C543        H548   1.088       .  S
C544        C769   1.475       .  S
O549        V557   1.897       .  S
O549        C827   1.263       .  A
O550        V557   1.894       .  S
O550        C828   1.264       .  A
O551        V557   1.885       .  S
O551        C829   1.262       .  A
O552        V557   1.884       .  S
O552        C830   1.262       .  A
O553        V558   1.913       .  S
O553        C562   1.268       .  A
O554        V558   1.905       .  S
O554        C561   1.265       .  A
O555        V558   1.904       .  S
O555        C560   1.265       .  A
O556        V558   1.909       .  S
O556        C559   1.265       .  A
V557        V826   2.085       .  T
V558        V825   2.085       .  T
C559        O817   1.263   1_545  A
C559        C799   1.473       .  S
C560        O818   1.264       .  A
C560        C746   1.485       .  S
C561        O819   1.262       .  A
C561        C759   1.473       .  S
C562        O820   1.262   1_545  A
C562        C789   1.485       .  S
O563        V571   1.899       .  S
O563        C841   1.264       .  A
O564        V571   1.897       .  S
O564        C842   1.265       .  A
O565        V571   1.888       .  S
O565        C843   1.262       .  A
O566        V571   1.885       .  S
O566        C844   1.262       .  A
O567        V572   1.908       .  S
O567        C576   1.266       .  A
O568        V572   1.899       .  S
O568        C575   1.265       .  A
O569        V572   1.899       .  S
O569        C574   1.264       .  A
O570        V572   1.901       .  S
O570        C573   1.263       .  A
V571        V840   2.085       .  T
V572        V839   2.085   1_545  T
C573        O831   1.264   1_545  A
C573        C739   1.469       .  S
C574        O832   1.265   1_545  A
C574        C706   1.486       .  S
C575        O833   1.262   1_545  A
C575        C716   1.480       .  S
C576        O834   1.262   1_545  A
C576        C726   1.478       .  S
O577        V585   1.896       .  S
O578        V853   1.900   1_546  S
O579        V853   1.903   1_545  S
O580        V585   1.904   1_556  S
O581        V586   1.897       .  S
O581        C590   1.264   1_655  A
O582        V854   1.898   1_544  S
O582        C589   1.264   1_655  A
O583        V854   1.895   1_545  S
O583        C588   1.265   1_655  A
O584        V586   1.895   1_554  S
O584        C587   1.263   1_655  A
V585        O846   1.900   1_554  S
V585        O847   1.903       .  S
V586        O850   1.898   1_556  S
V586        O851   1.895       .  S
C587        C686   1.483   1_455  S
C588        C666   1.486       .  S
C589        C699   1.489   1_455  S
C590        C679   1.481       .  S
O591        V599   1.890       .  S
O592        V599   1.896       .  S
O593        V599   1.896       .  S
O594        V599   1.897       .  S
O595        V600   1.892       .  S
O595        C604   1.263       .  A
O596        V600   1.894       .  S
O596        C603   1.263       .  A
O597        V600   1.905       .  S
O597        C602   1.266       .  A
O598        V600   1.901       .  S
O598        C601   1.265       .  A
C601        C646   1.483       .  S
C602        C696   1.489       .  S
C603        C689   1.482       .  S
C604        C659   1.475       .  S
C605        C611   1.529       .  S
C605        C609   1.536       .  S
C605        C649   1.529       .  S
C606        H613   1.085       .  S
C606        C875   1.369       .  D
C607        C874   1.369       .  D
C607        C736   1.493   1_565  S
C608        C612   1.530       .  S
C608        C610   1.538   1_545  S
C608        H614   1.109       .  S
C609        H615   1.086       .  S
C609        C878   1.365       .  D
C610        C877   1.365       .  D
C610        C729   1.473   1_565  S
C611        H616   1.088       .  S
C611        C880   1.361       .  D
C612        C879   1.361   1_545  D
C612        C656   1.470       .  S
O617        V625   1.890       .  S
O618        V625   1.891       .  S
O619        V625   1.901       .  S
O620        V625   1.900       .  S
O621        V626   1.898       .  S
O621        C630   1.264       .  A
O622        V626   1.897       .  S
O622        C629   1.264       .  A
O623        V626   1.904       .  S
O623        C628   1.267       .  A
O624        V626   1.906       .  S
O624        C627   1.266       .  A
C627        C669   1.486       .  S
C628        C776   1.486       .  S
C629        C766   1.479       .  S
C630        C676   1.482       .  S
O631        C641   1.267       .  A
O632        V639   1.907       .  S
O632        C642   1.267       .  A
O633        V639   1.900       .  S
O633        C643   1.264       .  A
O634        C644   1.264       .  A
O635        C644   1.263       .  A
O636        V640   1.887       .  S
O636        C643   1.263       .  A
O637        V640   1.888       .  S
O637        C642   1.262       .  A
O638        C641   1.262       .  A
V639        V640   2.084       .  T
C641        C749   1.487       .  S
C642        C709   1.486       .  S
C643        C756   1.473       .  S
C644        C719   1.480       .  S
C645        C646   1.406       .  A
C645        C650   1.399       .  A
C645        F652   1.358       .  S
C647        C648   1.394       .  A
C647        F654   1.358       .  S
C648        F653   1.358       .  S
C649        C650   1.416       .  A
C650        F651   1.356       .  S
C655        C660   1.400       .  A
C655        F662   1.358       .  S
C656        C657   1.401       .  A
C657        C658   1.392       .  A
C657        F664   1.358       .  S
C658        C659   1.408       .  A
C658        F663   1.358       .  S
C660        F661   1.358       .  S
C665        C670   1.402       .  A
C665        F672   1.358       .  S
C666        C667   1.408   1_455  A
C667        C668   1.394       .  A
C667        F674   1.358       .  S
C668        F673   1.358       .  S
C669        C670   1.409       .  A
C670        F671   1.358       .  S
C675        C680   1.398       .  A
C675        F682   1.358       .  S
C676        C677   1.409       .  A
C677        C678   1.400       .  A
C677        F684   1.358       .  S
C678        F683   1.358       .  S
C679        C680   1.408   1_455  A
C680        F681   1.358       .  S
C685        C686   1.409       .  A
C685        C690   1.397       .  A
C685        F692   1.358       .  S
C687        C688   1.395       .  A
C687        F694   1.358       .  S
C688        F693   1.358       .  S
C689        C690   1.409       .  A
C690        F691   1.358       .  S
C695        C696   1.409       .  A
C695        C700   1.400       .  A
C695        F702   1.358       .  S
C697        C698   1.399       .  A
C697        F704   1.358       .  S
C698        F703   1.358       .  S
C699        C700   1.411       .  A
C700        F701   1.358       .  S
C705        C706   1.410       .  A
C705        C710   1.400       .  A
C705        F712   1.358       .  S
C706        C707   1.408   1_545  A
C707        C708   1.395   1_565  A
C707        F714   1.358       .  S
C708        C709   1.411       .  A
C708        F713   1.358   1_545  S
C709        C710   1.408       .  A
C710        F711   1.358       .  S
C715        C716   1.409   1_565  A
C715        C720   1.394   1_565  A
C715        F990   1.358       .  S
C716        C717   1.408       .  A
C717        C718   1.397       .  A
C717        F724   1.358       .  S
C718        C719   1.408       .  A
C718        F723   1.358       .  S
C719        C720   1.408       .  A
C720        F989   1.358   1_545  S
F721        C988   1.358       .  S
F722        C983   1.358       .  S
C725        C726   1.409       .  A
C725        C730   1.403       .  A
C725        F732   1.358       .  S
C726        C995   1.409   1_545  A
C727        C994   1.409       .  A
C727        C728   1.392       .  A
C727        F734   1.358       .  S
C728        C997   1.401       .  A
C728        F733   1.358       .  S
C729        C996   1.401   1_545  A
C729        C730   1.405       .  A
C730        F731   1.358       .  S
C735        C736   1.410       .  A
C735        C740   1.401       .  A
C735        F742   1.357       .  S
C736       C1005   1.414   1_545  A
C737       C1004   1.414       .  A
C737        C738   1.397       .  A
C737        F744   1.358       .  S
C738       C1007   1.399       .  A
C738        F743   1.358       .  S
C739       C1006   1.399   1_545  A
C739        C740   1.403       .  A
C740        F741   1.358       .  S
C745        C746   1.410       .  A
C745        C750   1.403       .  A
C745        F752   1.358       .  S
C746        C747   1.407       .  A
C747        C748   1.394       .  A
C747        F754   1.358   1_545  S
C748        C749   1.411       .  A
C748        F753   1.358   1_545  S
C749        C750   1.409       .  A
C750        F751   1.358       .  S
C755        C756   1.406       .  A
C755        C760   1.391       .  A
C755        F762   1.358   1_545  S
C756        C757   1.407       .  A
C757        C758   1.401       .  A
C757        F764   1.358       .  S
C758        C759   1.407       .  A
C758        F763   1.358       .  S
C759        C760   1.405       .  A
C760        F761   1.358   1_545  S
C765        C770   1.401       .  A
C765        F772   1.358       .  S
C766        C767   1.408       .  A
C767        C768   1.396       .  A
C767        F774   1.358       .  S
C768        C769   1.404       .  A
C768        F773   1.358       .  S
C770        F771   1.358       .  S
C775        C776   1.405       .  A
C775        C780   1.398       .  A
C775        F782   1.358       .  S
C777        C778   1.397       .  A
C777        F784   1.358       .  S
C778        F783   1.356       .  S
C779        C780   1.416       .  A
C780        F781   1.357       .  S
C785       C1054   1.404       .  A
C785        C790   1.392       .  A
C785        F792   1.358       .  S
C786       C1053   1.404   1_545  A
C786        C787   1.407       .  A
C787        C788   1.405       .  A
C787        F794   1.357       .  S
C788        C789   1.410       .  A
C788        F793   1.357       .  S
C789       C1058   1.410   1_545  A
C790       C1057   1.410       .  A
C790        F791   1.358       .  S
C795       C1064   1.410       .  A
C795        C800   1.403       .  A
C795        F802   1.357       .  S
C796       C1063   1.410       .  A
C796        C797   1.412   1_545  A
C797        C798   1.399   1_565  A
C797        F804   1.358       .  S
C798        C799   1.401       .  A
C798        F803   1.358   1_545  S
C799       C1068   1.404       .  A
C800       C1067   1.404       .  A
C800        F801   1.358       .  S
C805        C806   1.543       .  S
C805        C811   1.529   1_655  S
C806        H813   1.084       .  S
C807        C808   1.545       .  S
C807       C1064   1.494       .  S
C808        H814   1.109       .  S
C809        H815   1.086       .  S
C810       C1054   1.483       .  S
C811        H816   1.088       .  S
C812       C1037   1.475       .  S
O817        V825   1.897   1_565  S
O818        V825   1.894       .  S
O819        V825   1.885       .  S
O820        V825   1.884   1_565  S
O821        V826   1.913       .  S
O821        C830   1.268       .  A
O822        V826   1.905       .  S
O822        C829   1.265       .  A
O823        V826   1.904       .  S
O823        C828   1.265       .  A
O824        V826   1.909       .  S
O824        C827   1.265       .  A
C827       C1067   1.473       .  S
C828       C1014   1.485       .  S
C829       C1027   1.473       .  S
C830       C1057   1.485       .  S
O831        V839   1.899       .  S
O832        V839   1.897       .  S
O833        V839   1.888       .  S
O834        V839   1.885       .  S
O835        V840   1.908       .  S
O835        C844   1.266       .  A
O836        V840   1.899       .  S
O836        C843   1.265       .  A
O837        V840   1.899       .  S
O837        C842   1.264       .  A
O838        V840   1.901       .  S
O838        C841   1.263       .  A
C841       C1007   1.469       .  S
C842        C974   1.486       .  S
C843        C984   1.480       .  S
C844        C994   1.478       .  S
O845        V853   1.896       .  S
O848        V853   1.904   1_556  S
O849        V854   1.897       .  S
O849        C858   1.264   1_655  A
O850        C857   1.264   1_655  A
O851        C856   1.265   1_655  A
O852        V854   1.895   1_554  S
O852        C855   1.263   1_655  A
C855        C954   1.483   1_455  S
C856        C934   1.486       .  S
C857        C967   1.489   1_455  S
C858        C947   1.481       .  S
O859        V867   1.890       .  S
O860        V867   1.896       .  S
O861        V867   1.896       .  S
O862        V867   1.897       .  S
O863        V868   1.892       .  S
O863        C872   1.263       .  A
O864        V868   1.894       .  S
O864        C871   1.263       .  A
O865        V868   1.905       .  S
O865        C870   1.266       .  A
O866        V868   1.901       .  S
O866        C869   1.265       .  A
C869        C914   1.483       .  S
C870        C964   1.489       .  S
C871        C957   1.482       .  S
C872        C927   1.475       .  S
C873        C879   1.529       .  S
C873        C877   1.536       .  S
C873        C917   1.529       .  S
C874        H881   1.085       .  S
C875       C1004   1.493       .  S
C876        C880   1.530       .  S
C876        C878   1.538       .  S
C876        H882   1.109       .  S
C877        H883   1.086       .  S
C878        C997   1.473       .  S
C879        H884   1.088       .  S
C880        C924   1.470       .  S
O885        V893   1.890       .  S
O886        V893   1.891       .  S
O887        V893   1.901       .  S
O888        V893   1.900       .  S
O889        V894   1.898       .  S
O889        C898   1.264       .  A
O890        V894   1.897       .  S
O890        C897   1.264       .  A
O891        V894   1.904       .  S
O891        C896   1.267       .  A
O892        V894   1.906       .  S
O892        C895   1.266       .  A
C895        C937   1.486       .  S
C896       C1044   1.486       .  S
C897       C1034   1.479       .  S
C898        C944   1.482       .  S
O899        C909   1.267       .  A
O900        V907   1.907       .  S
O900        C910   1.267       .  A
O901        V907   1.900       .  S
O901        C911   1.264       .  A
O902        C912   1.264       .  A
O903        C912   1.263       .  A
O904        V908   1.887       .  S
O904        C911   1.263       .  A
O905        V908   1.888       .  S
O905        C910   1.262       .  A
O906        C909   1.262       .  A
V907        V908   2.084       .  T
C909       C1017   1.487       .  S
C910        C977   1.486       .  S
C911       C1024   1.473       .  S
C912        C987   1.480       .  S
C913        C914   1.406       .  A
C913        C918   1.399       .  A
C913        F920   1.358       .  S
C915        C916   1.394       .  A
C915        F922   1.358       .  S
C916        F921   1.358       .  S
C917        C918   1.416       .  A
C918        F919   1.356       .  S
C923        C928   1.400       .  A
C923        F930   1.358       .  S
C924        C925   1.401       .  A
C925        C926   1.392       .  A
C925        F932   1.358       .  S
C926        C927   1.408       .  A
C926        F931   1.358       .  S
C928        F929   1.358       .  S
C933        C938   1.402       .  A
C933        F940   1.358       .  S
C934        C935   1.408   1_455  A
C935        C936   1.394       .  A
C935        F942   1.358       .  S
C936        F941   1.358       .  S
C937        C938   1.409       .  A
C938        F939   1.358       .  S
C943        C948   1.398       .  A
C943        F950   1.358       .  S
C944        C945   1.409       .  A
C945        C946   1.400       .  A
C945        F952   1.358       .  S
C946        F951   1.358       .  S
C947        C948   1.408   1_455  A
C948        F949   1.358       .  S
C953        C954   1.409       .  A
C953        C958   1.397       .  A
C953        F960   1.358       .  S
C955        C956   1.395       .  A
C955        F962   1.358       .  S
C956        F961   1.358       .  S
C957        C958   1.409       .  A
C958        F959   1.358       .  S
C963        C964   1.409       .  A
C963        C968   1.400       .  A
C963        F970   1.358       .  S
C965        C966   1.399       .  A
C965        F972   1.358       .  S
C966        F971   1.358       .  S
C967        C968   1.411       .  A
C968        F969   1.358       .  S
C973        C974   1.410       .  A
C973        C978   1.400       .  A
C973        F980   1.358       .  S
C974        C975   1.408       .  A
C975        C976   1.395       .  A
C975        F982   1.358       .  S
C976        C977   1.411       .  A
C976        F981   1.358       .  S
C977        C978   1.408       .  A
C978        F979   1.358       .  S
C983        C984   1.409       .  A
C983        C988   1.394       .  A
C984        C985   1.408       .  A
C985        C986   1.397       .  A
C985        F992   1.358       .  S
C986        C987   1.408       .  A
C986        F991   1.358       .  S
C987        C988   1.408       .  A
C993        C994   1.409       .  A
C993        C998   1.403       .  A
C993       F1000   1.358       .  S
C995        C996   1.392       .  A
C995       F1002   1.358       .  S
C996       F1001   1.358       .  S
C997        C998   1.405       .  A
C998        F999   1.358       .  S
C1003      C1004   1.410       .  A
C1003      C1008   1.401       .  A
C1003      F1010   1.357       .  S
C1005      C1006   1.397       .  A
C1005      F1012   1.358       .  S
C1006      F1011   1.358       .  S
C1007      C1008   1.403       .  A
C1008      F1009   1.358       .  S
C1013      C1014   1.410       .  A
C1013      C1018   1.403       .  A
C1013      F1020   1.358       .  S
C1014      C1015   1.407       .  A
C1015      C1016   1.394       .  A
C1015      F1022   1.358       .  S
C1016      C1017   1.411       .  A
C1016      F1021   1.358       .  S
C1017      C1018   1.409       .  A
C1018      F1019   1.358       .  S
C1023      C1024   1.406       .  A
C1023      C1028   1.391       .  A
C1023      F1030   1.358       .  S
C1024      C1025   1.407       .  A
C1025      C1026   1.401       .  A
C1025      F1032   1.358       .  S
C1026      C1027   1.407       .  A
C1026      F1031   1.358       .  S
C1027      C1028   1.405       .  A
C1028      F1029   1.358       .  S
C1033      C1038   1.401       .  A
C1033      F1040   1.358       .  S
C1034      C1035   1.408       .  A
C1035      C1036   1.396       .  A
C1035      F1042   1.358       .  S
C1036      C1037   1.404       .  A
C1036      F1041   1.358       .  S
C1038      F1039   1.358       .  S
C1043      C1044   1.405       .  A
C1043      C1048   1.398       .  A
C1043      F1050   1.358       .  S
C1045      C1046   1.397       .  A
C1045      F1052   1.358       .  S
C1046      F1051   1.356       .  S
C1047      C1048   1.416       .  A
C1048      F1049   1.357       .  S
C1053      C1058   1.392       .  A
C1053      F1060   1.358       .  S
C1054      C1055   1.407       .  A
C1055      C1056   1.405       .  A
C1055      F1062   1.357       .  S
C1056      C1057   1.410       .  A
C1056      F1061   1.357       .  S
C1058      F1059   1.358       .  S
C1063      C1068   1.403       .  A
C1063      F1070   1.357       .  S
C1064      C1065   1.412       .  A
C1065      C1066   1.399       .  A
C1065      F1072   1.358       .  S
C1066      C1067   1.401       .  A
C1066      F1071   1.358       .  S
C1068      F1069   1.358       .  S
