geometry optimzed in LAMMPS
_audit_creation_date              2020-11-30 
_audit_creation_method            'lammps2cif' 
_symmetry_space_group_name_H-M    'P1' 
_symmetry_Int_Tables_number       1 
_symmetry_cell_setting            triclinic 
loop_ 
_symmetry_equiv_pos_as_xyz 
  x,y,z 
_cell_length_a                    36.1332008 
_cell_length_b                    39.35206391083693 
_cell_length_c                    25.82884907533749 
_cell_angle_alpha                 90.84323629881979 
_cell_angle_beta                  89.90058984973744 
_cell_angle_gamma                 88.34429326555774 
loop_ 
_atom_site_label 
_atom_site_type_symbol 
_atom_site_fract_x 
_atom_site_fract_y 
_atom_site_fract_z 
_atom_site_charge 
O1          O  0.09362011  0.25855836  0.16351491    -0.57700
C2          C  0.99030264  0.22784170  0.28941384     0.74900
O3          O  0.01178700  0.19826384  0.13860153    -0.58900
C4          C  0.11061540  0.23085922  0.14943031     0.74900
C5          C  0.09263383  0.21803550  0.27890297     0.77300
Cd6        Cd  0.04267183  0.22943736  0.20336022     1.37500
O7          O  0.00308909  0.25584553  0.27371114    -0.57700
O8          O  0.08196643  0.24853927  0.26909766    -0.56500
C9          C  0.99309806  0.22337461  0.12067528     0.77200
O10         O  0.08024074  0.19326823  0.25199284    -0.58900
O11         O  0.00065213  0.20098928  0.26449560    -0.57400
O12         O  0.09381864  0.20312319  0.15527537    -0.57300
O13         O  0.99940952  0.25302393  0.13876133    -0.56500
O14         O  0.37377189  0.17324539  0.16790678    -0.57700
C15         C  0.40107978  0.11830768  0.08073433     0.74900
O16         O  0.35034374  0.17285982  0.01249970    -0.58900
C17         C  0.36295181  0.20343112  0.17861885     0.74900
C18         C  0.46147987  0.21632076  0.08747767     0.77300
Cd19       Cd  0.39139371  0.18833809  0.08188231     1.37500
O20         O  0.39809517  0.13474627  0.12326748    -0.57700
O21         O  0.45723353  0.18627100  0.07156556    -0.56500
C22         C  0.32197139  0.18478381  0.03612974     0.77200
O23         O  0.43402966  0.23688392  0.08365054    -0.58900
O24         O  0.40287173  0.13485001  0.03902313    -0.57400
O25         O  0.36977284  0.22661550  0.14686093    -0.57300
O26         O  0.32681183  0.20767923  0.06986947    -0.56500
C27         C  0.15075405  0.23054238  0.13316655     0.86600
C28         C  0.16107367  0.26147205  0.10163113    -0.53700
C29         C  0.19764694  0.26223270  0.08864013     0.09500
C30         C  0.22088281  0.23201840  0.10992967     0.20500
C31         C  0.16476260  0.19949006  0.10020147    -0.54400
C32         C  0.20152952  0.20045196  0.08691270     0.09600
C33         C  0.17609814  0.23116022  0.18047812    -0.53900
C34         C  0.21277531  0.23203578  0.16924435     0.10200
H35         H  0.14048094  0.27907458  0.08575125     0.14700
H36         H  0.25082048  0.23309995  0.10063196     0.00400
H37         H  0.14675480  0.17977580  0.08617396     0.15000
H38         H  0.16578212  0.23072595  0.22002769     0.14800
C39         C  0.20824452  0.33165206  0.98741977     0.86600
C40         C  0.20921412  0.31576479  0.04191341    -0.53700
C41         C  0.20815993  0.28118914  0.04219598     0.09500
C42         C  0.20416099  0.26496615  0.98844750     0.20500
C43         C  0.23996798  0.31245883  0.95669221    -0.54400
C44         C  0.23649581  0.27741201  0.95498733     0.09600
C45         C  0.17350746  0.31640720  0.96144971    -0.53900
C46         C  0.17027740  0.28238210  0.96603263     0.10200
H47         H  0.20669595  0.33040911  0.07766311     0.14700
H48         H  0.20075163  0.23715589  0.98898877     0.00400
H49         H  0.26027641  0.32522481  0.93362975     0.15000
H50         H  0.15283737  0.33099788  0.94008833     0.14800
C51         C  0.30425393  0.22243770  0.86876134     0.86600
C52         C  0.27904034  0.22352772  0.82116038    -0.53700
C53         C  0.24220616  0.22388721  0.83196809     0.09500
C54         C  0.23389562  0.22326647  0.89122383     0.20500
C55         C  0.29156579  0.25345452  0.90279967    -0.54400
C56         C  0.25464267  0.25370157  0.91559432     0.09600
C57         C  0.29212846  0.19141407  0.89906510    -0.53900
C58         C  0.25543526  0.19181896  0.91187308     0.10200
H59         H  0.28958868  0.22315313  0.78172011     0.14700
H60         H  0.20382534  0.22306851  0.89999347     0.00400
H61         H  0.31041519  0.27215166  0.91783373     0.15000
H62         H  0.31179975  0.17276523  0.91440907     0.14800
C63         C  0.24460912  0.12157118  0.01236464     0.86600
C64         C  0.21558436  0.14164877  0.04659672    -0.53700
C65         C  0.22029059  0.17633546  0.04859659     0.09500
C66         C  0.25124928  0.18818971  0.01229482     0.20500
C67         C  0.24124433  0.13828523  0.95822629    -0.54400
C68         C  0.24392762  0.17295651  0.95842353     0.09600
C69         C  0.28188787  0.13525423  0.03316904    -0.53900
C70         C  0.28586197  0.16929487  0.02926659     0.10200
H71         H  0.19501116  0.12964094  0.07017982     0.14700
H72         H  0.25558503  0.21589473  0.01236632     0.00400
H73         H  0.24209609  0.12402231  0.92194448     0.15000
H74         H  0.30385120  0.12011471  0.05070216     0.14800
O75         O  0.45374796  0.19286576  0.72773303    -0.57700
C76         C  0.34464937  0.22033869  0.85289199     0.74900
O77         O  0.44715674  0.24286366  0.86651433    -0.58900
C78         C  0.46445436  0.22144602  0.71135633     0.74900
C79         C  0.36308161  0.22472059  0.72285615     0.77300
Cd80       Cd  0.41323479  0.21695983  0.79875026     1.37500
O81         O  0.36033077  0.19175530  0.84029316    -0.57700
O82         O  0.37436924  0.19459065  0.73447537    -0.56500
C83         C  0.46403455  0.21584225  0.88133125     0.77200
O84         O  0.37486449  0.25038064  0.74830287    -0.58900
O85         O  0.36300265  0.24711798  0.84570094    -0.57400
O86         O  0.45265221  0.24787509  0.73625867    -0.57300
O87         O  0.45554470  0.18772217  0.85975079    -0.56500
O88         O  0.04561707  0.30053279  0.88203489    -0.57700
C89         C  0.09012923  0.22626807  0.82350474     0.74900
O90         O  0.11910743  0.24454626  0.97866249    -0.58900
C91         C  0.04488496  0.31645712  0.92517031     0.74900
C92         C  0.49605861  0.21917388  0.91544779     0.77300
Cd93       Cd  0.06475935  0.24814181  0.91846338     1.37500
O94         O  0.07062569  0.25339915  0.82866298    -0.57700
O95         O  0.50024005  0.24694997  0.93965870    -0.56500
C96         C  0.13617796  0.26570659  0.95058365     0.77200
O97         O  0.52403348  0.19905993  0.91139319    -0.58900
O98         O  0.09288280  0.20617357  0.86136993    -0.57400
O99         O  0.04860654  0.29950953  0.96649908    -0.57300
O100        O  0.12110885  0.27490992  0.90903408    -0.56500
O101        O  0.34358485  0.25632496  0.33775240    -0.57700
C102        C  0.24049463  0.23132318  0.21199227     0.74900
O103        O  0.32471425  0.18741812  0.24767856    -0.58900
C104        C  0.35979288  0.22846946  0.35152377     0.74900
C105        C  0.24219759  0.22174875  0.38063453     0.77300
Cd106      Cd  0.29175973  0.22772306  0.29855926     1.37500
O107        O  0.25450898  0.25832488  0.23070896    -0.57700
O108        O  0.24913190  0.25141075  0.36458251    -0.56500
C109        C  0.34034865  0.21117207  0.22313881     0.77200
O110        O  0.26025475  0.19646228  0.36089489    -0.58900
O111        O  0.24908314  0.20354747  0.23429749    -0.57400
O112        O  0.34216037  0.20110690  0.34584797    -0.57300
O113        O  0.33353231  0.24224730  0.23568413    -0.56500
O114        O  0.15396294  0.13442159  0.38372541    -0.57700
C115        C  0.11555453  0.21095212  0.32305126     0.74900
O116        O  0.08742547  0.19846499  0.47825652    -0.58900
C117        C  0.15402814  0.12025118  0.42756915     0.74900
C118        C  0.21052002  0.21506329  0.41348530     0.77300
Cd119      Cd  0.14047520  0.18905471  0.41745197     1.37500
O120        O  0.13207529  0.18227929  0.32708450    -0.57700
O121        O  0.20563881  0.18484431  0.42710695    -0.56500
C122        C  0.06806336  0.17891045  0.44963641     0.77200
O123        O  0.18367754  0.23637922  0.41912800    -0.58900
O124        O  0.11617113  0.23164635  0.36110831    -0.57400
O125        O  0.15218440  0.13892539  0.46825215    -0.57300
O126        O  0.08189654  0.16794894  0.40770678    -0.56500
C127        C  0.05416285  0.22345566  0.63146307     0.86600
C128        C  0.04295283  0.19206604  0.59997381    -0.53700
C129        C  0.00636099  0.19161127  0.58735390     0.09500
C130        C  0.48389460  0.22264871  0.60894280     0.20500
C131        C  0.04079905  0.25407843  0.59845558    -0.54400
C132        C  0.50390421  0.25344940  0.58550983     0.09600
C133        C  0.02879595  0.22421733  0.67904893    -0.53900
C134        C  0.49203893  0.22362511  0.66824890     0.10200
H135        H  0.06306876  0.17369048  0.58395664     0.14700
H136        H  0.45389966  0.22173811  0.60006004     0.00400
H137        H  0.05924592  0.27308608  0.58406295     0.15000
H138        H  0.03922927  0.22423382  0.71848887     0.14800
C139        C  0.49150160  0.11927070  0.48809235     0.86600
C140        C  0.49169678  0.13698863  0.54219556    -0.53700
C141        C  0.99504967  0.17145167  0.54138822     0.09500
C142        C  0.00008458  0.18555514  0.48701122     0.20500
C143        C  0.46110876  0.13923593  0.45700594    -0.54400
C144        C  0.46692731  0.17385661  0.45401383     0.09600
C145        C  0.02718364  0.13149867  0.46169486    -0.53900
C146        C  0.03269501  0.16531310  0.46518410     0.10200
H147        H  0.49311670  0.12344315  0.57838505     0.14700
H148        H  0.00526948  0.21313530  0.48671808     0.00400
H149        H  0.43971711  0.12694910  0.43482660     0.15000
H150        H  0.04691792  0.11508281  0.44087558     0.14800
C151        C  0.39986429  0.22739620  0.36764034     0.86600
C152        C  0.42553829  0.22635655  0.32041602    -0.53700
C153        C  0.46220303  0.22671182  0.33190606     0.09500
C154        C  0.46985159  0.22770526  0.39131571     0.20500
C155        C  0.41266751  0.19680805  0.40098288    -0.54400
C156        C  0.44933064  0.19718566  0.41465399     0.09600
C157        C  0.41089774  0.25875002  0.39900796    -0.53900
C158        C  0.44740816  0.25890456  0.41222945     0.10200
H159        H  0.41542039  0.22608934  0.28080516     0.14700
H160        H  0.99978294  0.22844147  0.40064267     0.00400
H161        H  0.39392028  0.17799656  0.41520973     0.15000
H162        H  0.39071322  0.27719547  0.41466089     0.14800
C163        C  0.45750209  0.33017556  0.51335355     0.86600
C164        C  0.48875793  0.31154809  0.54485406    -0.53700
C165        C  0.48533572  0.27654411  0.54657328     0.09500
C166        C  0.45345089  0.26343877  0.51241900     0.20500
C167        C  0.45928101  0.31315752  0.45891378    -0.54400
C168        C  0.45819112  0.27855389  0.45866649     0.09600
C169        C  0.42238175  0.31558672  0.53825074    -0.53900
C170        C  0.41923968  0.28148211  0.53381520     0.10200
H171        H  0.00897898  0.32473982  0.56798119     0.14700
H172        H  0.45011849  0.23560922  0.51197665     0.00400
H173        H  0.45695377  0.32704777  0.42309566     0.15000
H174        H  0.40147795  0.33061658  0.55922268     0.14800
O175        O  0.20392793  0.19367916  0.77082170    -0.57700
C176        C  0.09446336  0.22183431  0.64758263     0.74900
O177        O  0.12309029  0.24796497  0.75470799    -0.58900
C178        C  0.21451998  0.22213500  0.78894837     0.74900
C179        C  0.21302662  0.21810213  0.61959852     0.77300
Cd180      Cd  0.16280801  0.21774681  0.70195625     1.37500
O181        O  0.11062815  0.19323637  0.65743552    -0.57700
O182        O  0.20477023  0.18957763  0.63885464    -0.56500
C183        C  0.11294502  0.22145667  0.77838175     0.77200
O184        O  0.19593788  0.24482905  0.63641251    -0.58900
O185        O  0.11212848  0.24872132  0.65803361    -0.57400
O186        O  0.20232256  0.24873867  0.76604563    -0.57300
O187        O  0.12568498  0.19194622  0.76445795    -0.56500
O188        O  0.29516553  0.30477907  0.61953587    -0.57700
C189        C  0.34000737  0.23067082  0.67840978     0.74900
O190        O  0.27319063  0.20216805  0.58874066    -0.58900
C191        C  0.29489737  0.31962754  0.57620553     0.74900
C192        C  0.38514053  0.26547693  0.54967338     0.77300
Cd193      Cd  0.31378239  0.25122727  0.58368446     1.37500
O194        O  0.32259363  0.25890033  0.67377292    -0.57700
O195        O  0.37144769  0.27469457  0.59253960    -0.56500
C196        C  0.24511684  0.22218471  0.58617414     0.77200
O197        O  0.36654351  0.24544180  0.52080990    -0.58900
O198        O  0.34013152  0.20966238  0.64068753    -0.57400
O199        O  0.29876979  0.30163358  0.53514619    -0.57300
O200        O  0.24914174  0.25037539  0.56438083    -0.56500
O201        O  0.08901510  0.00218559  0.67278060    -0.57700
C202        C  0.19275336  0.97967148  0.78541453     0.74900
O203        O  0.11723763  0.42407605  0.75272752    -0.58900
C204        C  0.07242365  0.47617358  0.65501042     0.74900
C205        C  0.19408646  0.45889326  0.61961200     0.77300
Cd206      Cd  0.14237789  0.46851235  0.70161993     1.37500
O207        O  0.17559035  0.00499956  0.76506739    -0.57700
O208        O  0.18492712  0.48891945  0.63477408    -0.56500
C209        C  0.10027896  0.44630185  0.78148763     0.77200
O210        O  0.17692157  0.43436421  0.63932916    -0.58900
O211        O  0.18773478  0.45046120  0.76536847    -0.57400
O212        O  0.09054062  0.44799531  0.65319083    -0.57300
O213        O  0.10248778  0.47761999  0.77085558    -0.56500
O214        O  0.32842389  0.40991748  0.65639446    -0.57700
C215        C  0.29379989  0.35637221  0.57462344     0.74900
O216        O  0.25189920  0.47302172  0.58058449    -0.58900
C217        C  0.33036982  0.44034654  0.67232617     0.74900
C218        C  0.36883276  0.43112328  0.51921740     0.77300
Cd219      Cd  0.30093585  0.42686695  0.57463787     1.37500
O220        O  0.29713585  0.37352595  0.61617422    -0.57700
O221        O  0.36191384  0.45208531  0.55559240    -0.56500
C222        C  0.22692197  0.45153642  0.58741756     0.77200
O223        O  0.34123592  0.41687251  0.49891173    -0.58900
O224        O  0.29236588  0.37222077  0.53216924    -0.57400
O225        O  0.31649884  0.46359245  0.64445812    -0.57300
O226        O  0.23449937  0.42130584  0.57365328    -0.56500
C227        C  0.40964803  0.47123596  0.36391581     0.86600
C228        C  0.42042650  0.44094192  0.39706715    -0.53700
C229        C  0.45663571  0.43948745  0.41217612     0.09500
C230        C  0.47971855  0.46776471  0.38789738     0.20500
C231        C  0.42325820  0.50284011  0.39429296    -0.54400
C232        C  0.46012840  0.50096548  0.40717163     0.09600
C233        C  0.43491176  0.46800031  0.31689262    -0.53900
C234        C  0.47156005  0.46618092  0.32854052     0.10200
H235        H  0.39983910  0.42396047  0.41154029     0.14700
H236        H  0.00964537  0.46596672  0.39755503     0.00400
H237        H  0.40497136  0.02364682  0.40718711     0.15000
H238        H  0.42470977  0.46864871  0.27733112     0.14800
C239        C  0.45450233  0.37112067  0.51160770     0.86600
C240        C  0.47240299  0.38918713  0.46508581    -0.53700
C241        C  0.46466084  0.42362180  0.46313631     0.09500
C242        C  0.44273789  0.43748214  0.51113691     0.20500
C243        C  0.46984299  0.39025036  0.55945764    -0.54400
C244        C  0.46444961  0.42490624  0.55861909     0.09600
C245        C  0.41336880  0.38364332  0.50716387    -0.53900
C246        C  0.40703186  0.41765884  0.51005161     0.10200
H247        H  0.48492477  0.37567371  0.43236245     0.14700
H248        H  0.43778055  0.46543851  0.51092552     0.00400
H249        H  0.98469833  0.37778029  0.59062054     0.15000
H250        H  0.39017454  0.36714033  0.50147041     0.14800
C251        C  0.03220732  0.47817104  0.63997336     0.86600
C252        C  0.00661181  0.48228881  0.68654362    -0.53700
C253        C  0.47007711  0.48479595  0.67422197     0.09500
C254        C  0.46242155  0.48282380  0.61475018     0.20500
C255        C  0.01811988  0.44675660  0.60988955    -0.54400
C256        C  0.48154885  0.44916784  0.59620993     0.09600
C257        C  0.02252432  0.50846042  0.60625442    -0.53900
C258        C  0.98634734  0.01065034  0.59084107     0.10200
H259        H  0.01644299  0.48140954  0.72627820     0.14700
H260        H  0.43262720  0.48507625  0.60448226     0.00400
H261        H  0.03605118  0.42551742  0.59761490     0.15000
H262        H  0.04365331  0.02492870  0.59182889     0.14800
C263        C  0.49169559  0.07829528  0.49050343     0.86600
C264        C  0.47448123  0.05966519  0.44336177    -0.53700
C265        C  0.47775073  0.02485753  0.44481518     0.09500
C266        C  0.99919977  0.01154731  0.49205740     0.20500
C267        C  0.47328071  0.06160778  0.53787583    -0.54400
C268        C  0.97871462  0.02683598  0.54012541     0.09600
C269        C  0.03205322  0.06358494  0.49422688    -0.53900
C270        C  0.03615981  0.02932377  0.49223329     0.10200
H271        H  0.46032385  0.07261646  0.41203605     0.14700
H272        H  0.00247553  0.48345706  0.49275353     0.00400
H273        H  0.46222187  0.07600793  0.57075120     0.15000
H274        H  0.05630765  0.07880962  0.49963750     0.14800
O275        O  0.35370841  0.44447579  0.33374675    -0.57700
C276        C  0.24870558  0.47034954  0.21648719     0.74900
O277        O  0.26442870  0.00570021  0.36747488    -0.58900
C278        C  0.36929907  0.47165596  0.34913254     0.74900
C279        C  0.34172334  0.49053458  0.22068995     0.77300
Cd280      Cd  0.29904249  0.47441889  0.30219391     1.37500
O281        O  0.26282725  0.44316704  0.23577639    -0.57700
O282        O  0.33827846  0.45957847  0.23364471    -0.56500
C283        C  0.24734939  0.48030632  0.38473002     0.77200
O284        O  0.32628406  0.01439266  0.24817859    -0.58900
O285        O  0.25634073  0.49842052  0.23862506    -0.57400
O286        O  0.35017676  0.49933753  0.34832961    -0.57300
O287        O  0.25650529  0.45092861  0.36659664    -0.56500
O288        O  0.11567978  0.03342186  0.34890140    -0.57700
C289        C  0.15287264  0.08364270  0.42991993     0.74900
O290        O  0.10172776  0.02702478  0.50535504    -0.58900
C291        C  0.11072349  0.50339887  0.33270992     0.74900
C292        C  0.21458341  0.98638265  0.41762420     0.77300
Cd293      Cd  0.14162689  0.01384552  0.43066714     1.37500
O294        O  0.14807838  0.06648554  0.38869260    -0.57700
O295        O  0.20861675  0.01532640  0.43795269    -0.56500
C296        C  0.07359539  0.01349845  0.48540548     0.77200
O297        O  0.18804537  0.46604187  0.41831671    -0.58900
O298        O  0.15392844  0.06803692  0.47257261    -0.57400
O299        O  0.12209839  0.47908288  0.36055658    -0.57300
O300        O  0.07978281  0.99086519  0.45114900    -0.56500
O301        O  0.33896304  0.00338710  0.83107071    -0.57700
C302        C  0.44244804  0.48135782  0.71585207     0.74900
O303        O  0.42642704  0.43387095  0.85701503    -0.58900
C304        C  0.32251636  0.47711817  0.84702845     0.74900
C305        C  0.34991361  0.44911835  0.71897426     0.77300
Cd306      Cd  0.39240310  0.47025698  0.79951483     1.37500
O307        O  0.42743713  0.00690286  0.73985027    -0.57700
O308        O  0.35185312  0.48033717  0.73183961    -0.56500
C309        C  0.44402701  0.45735783  0.87972781     0.77200
O310        O  0.36716958  0.42666522  0.74585959    -0.58900
O311        O  0.43528257  0.45195474  0.73207593    -0.57400
O312        O  0.34080221  0.44904553  0.84689315    -0.57300
O313        O  0.43554160  0.48797403  0.86830394    -0.56500
O314        O  0.07828228  0.40678016  0.84188030    -0.57700
C315        C  0.04360640  0.35324484  0.92614869     0.74900
O316        O  0.09071193  0.41485695  0.99999375    -0.58900
C317        C  0.08055975  0.43726055  0.82766436     0.74900
C318        C  0.47646792  0.44827429  0.91115396     0.77300
Cd319      Cd  0.05030772  0.42373122  0.92468420     1.37500
O320        O  0.04780699  0.36923778  0.88440217    -0.57700
O321        O  0.48458441  0.41734282  0.91771090    -0.56500
C322        C  0.11791254  0.43006796  0.98078561     0.77200
O323        O  0.50047970  0.46951556  0.92488054    -0.58900
O324        O  0.54120413  0.37027565  0.96825513    -0.57400
O325        O  0.06671808  0.46040709  0.85682402    -0.57300
O326        O  0.11056222  0.45047621  0.94481139    -0.56500
C327        C  0.15966613  0.47646726  0.13882209     0.86600
C328        C  0.18488393  0.47250474  0.18547762    -0.53700
C329        C  0.22146360  0.46982106  0.17364867     0.09500
C330        C  0.22967219  0.47142727  0.11417094     0.20500
C331        C  0.17405395  0.50784747  0.10988332    -0.54400
C332        C  0.21089849  0.50514715  0.09631633     0.09600
C333        C  0.16957839  0.44614044  0.10387680    -0.53900
C334        C  0.20575115  0.44368891  0.08874143     0.10200
H335        H  0.17465568  0.47280111  0.22510223     0.11500
H336        H  0.25954203  0.46892956  0.10418112     0.00400
H337        H  0.15614789  0.02890283  0.09784429     0.15000
H338        H  0.14851302  0.42967699  0.08868031     0.14800
C339        C  0.20505096  0.37264005  0.98945845     0.86600
C340        C  0.22045471  0.39120962  0.94182139    -0.53700
C341        C  0.21436352  0.42583268  0.94267810     0.09500
C342        C  0.19174489  0.43882501  0.98984100     0.20500
C343        C  0.22212538  0.39195397  0.03627744    -0.54400
C344        C  0.21371344  0.42637298  0.03800606     0.09600
C345        C  0.16375914  0.38442395  0.99375653    -0.53900
C346        C  0.15651539  0.41814977  0.99066025     0.10200
H347        H  0.23605272  0.37841608  0.91101481     0.14700
H348        H  0.18608646  0.46670119  0.99003796     0.00400
H349        H  0.23466282  0.37926845  0.06912916     0.15000
H350        H  0.14101253  0.36751867  0.99965588     0.14800
C351        C  0.28221220  0.47862329  0.86191415     0.86600
C352        C  0.27186799  0.00960466  0.89509961    -0.53700
C353        C  0.23576813  0.01151125  0.91090511     0.09500
C354        C  0.21228628  0.48288602  0.88695499     0.20500
C355        C  0.26849444  0.44769316  0.89236272    -0.54400
C356        C  0.23174174  0.44984563  0.90576236     0.09600
C357        C  0.25681808  0.48115409  0.81522062    -0.53900
C358        C  0.22020069  0.48346604  0.82737857     0.10200
H359        H  0.29269566  0.02667871  0.90934666     0.14700
H360        H  0.18241787  0.48504059  0.89706025     0.00400
H361        H  0.28670521  0.42693804  0.90471437     0.15000
H362        H  0.26688426  0.47967457  0.77554452     0.14800
C363        C  0.24402694  0.08030473  0.01120876     0.86600
C364        C  0.22435776  0.06304899  0.96470224    -0.53700
C365        C  0.22857577  0.02819664  0.96224003     0.09500
C366        C  0.24907644  0.01329133  0.00993845     0.20500
C367        C  0.22666010  0.06299716  0.05911726    -0.54400
C368        C  0.22862373  0.02803522  0.05779039     0.09600
C369        C  0.28383567  0.06430970  0.00686942    -0.53900
C370        C  0.28671142  0.02995490  0.00921859     0.10200
H371        H  0.21308062  0.07695246  0.93207212     0.14700
H372        H  0.25139432  0.48513808  0.00917423     0.00400
H373        H  0.21352796  0.07681802  0.09108163     0.15000
H374        H  0.30865715  0.07841101  0.00097320     0.14800
O375        O  0.01651100  0.44362741  0.26655077    -0.57700
C376        C  0.11938836  0.47694650  0.15432246     0.74900
O377        O  0.01286439  0.00836439  0.13990643    -0.58900
C378        C  0.99887724  0.46931806  0.28633805     0.74900
C379        C  0.09103829  0.49637235  0.28538367     0.77300
Cd380      Cd  0.04929323  0.47854210  0.20261346     1.37500
O381        O  0.10427853  0.44975805  0.16946006    -0.57700
O382        O  0.08831943  0.46550918  0.27053353    -0.56500
C383        C  0.99698293  0.48234607  0.12128303     0.77200
O384        O  0.07474407  0.02006003  0.25959605    -0.58900
O385        O  0.09985648  0.50439786  0.15594109    -0.57400
O386        O  0.00347642  0.49812061  0.26576094    -0.57300
O387        O  0.00748814  0.45322802  0.13768764    -0.56500
O388        O  0.39392733  0.06541682  0.12067890    -0.57700
C389        C  0.36090083  0.49805752  0.17345833     0.74900
O390        O  0.35267590  0.02552874  0.00013006    -0.58900
C391        C  0.39988388  0.08167702  0.07960547     0.74900
C392        C  0.46421315  0.98752087  0.08850760     0.77300
Cd393      Cd  0.39031098  0.01169348  0.07634968     1.37500
O394        O  0.36471752  0.02841786  0.15932747    -0.57700
O395        O  0.45643180  0.01692662  0.07253776    -0.56500
C396        C  0.32341870  0.01322983  0.01824542     0.77200
O397        O  0.43939808  0.46549452  0.08348089    -0.58900
O398        O  0.37256022  0.47428708  0.14357259    -0.57400
O399        O  0.40260475  0.06512020  0.03720504    -0.57300
O400        O  0.32773222  0.99099126  0.05259461    -0.56500
O401        O  0.09362374  0.75854120  0.16351875    -0.57700
C402        C  0.99031447  0.72785099  0.28944613     0.74900
O403        O  0.01180502  0.69822310  0.13867231    -0.58900
C404        C  0.11062856  0.73084074  0.14946231     0.74900
C405        C  0.09265938  0.71802759  0.27894497     0.77300
Cd406      Cd  0.04269150  0.72942179  0.20340148     1.37500
O407        O  0.00309727  0.75585174  0.27372371    -0.57700
O408        O  0.08199954  0.74853131  0.26912570    -0.56500
C409        C  0.99311739  0.72332801  0.12072491     0.77200
O410        O  0.08025643  0.69325821  0.25204993    -0.58900
O411        O  0.00067265  0.70099169  0.26455282    -0.57400
O412        O  0.09384383  0.70310181  0.15534142    -0.57300
O413        O  0.99943347  0.75298381  0.13878057    -0.56500
O414        O  0.37374443  0.67319625  0.16793454    -0.57700
C415        C  0.40108495  0.61827049  0.08075971     0.74900
O416        O  0.35035025  0.67289781  0.01249525    -0.58900
C417        C  0.36296855  0.70339055  0.17867212     0.74900
C418        C  0.46149605  0.71626424  0.08753937     0.77300
Cd419      Cd  0.39140063  0.68830009  0.08193178     1.37500
O420        O  0.39810739  0.63470328  0.12329823    -0.57700
O421        O  0.45724126  0.68620752  0.07166526    -0.56500
C422        C  0.32197544  0.68478056  0.03616709     0.77200
O423        O  0.43405325  0.73683372  0.08368024    -0.58900
O424        O  0.40286327  0.63481806  0.03905239    -0.57400
O425        O  0.36983283  0.72657926  0.14694070    -0.57300
O426        O  0.32681138  0.70762454  0.06998789    -0.56500
C427        C  0.15076642  0.73052831  0.13319812     0.86600
C428        C  0.16108368  0.76146302  0.10167294    -0.53700
C429        C  0.19765603  0.76222742  0.08867920     0.09500
C430        C  0.22089385  0.73201068  0.10995855     0.20500
C431        C  0.16477472  0.69948067  0.10022372    -0.54400
C432        C  0.20154182  0.70044481  0.08693626     0.09600
C433        C  0.17611136  0.73114037  0.18050850    -0.53900
C434        C  0.21278805  0.73202096  0.16927337     0.10200
H435        H  0.14048855  0.77906676  0.08579770     0.14700
H436        H  0.25083302  0.73309495  0.10065913     0.00400
H437        H  0.14676920  0.67976884  0.08619474     0.15000
H438        H  0.16579612  0.73070147  0.22005964     0.14800
C439        C  0.20822981  0.83164973  0.98745559     0.86600
C440        C  0.20921324  0.81576238  0.04195003    -0.53700
C441        C  0.20816159  0.78118551  0.04223308     0.09500
C442        C  0.20415185  0.76496287  0.98848639     0.20500
C443        C  0.23994759  0.81245766  0.95671611    -0.54400
C444        C  0.23647827  0.77741074  0.95501373     0.09600
C445        C  0.17348834  0.81640180  0.96150203    -0.53900
C446        C  0.17026139  0.78237637  0.96608671     0.10200
H447        H  0.20670231  0.83040626  0.07769958     0.14700
H448        H  0.20074600  0.73714873  0.98902766     0.00400
H449        H  0.26025231  0.82522376  0.93364799     0.15000
H450        H  0.15281448  0.83099038  0.94014082     0.14800
C451        C  0.30423906  0.72244287  0.86878525     0.86600
C452        C  0.27902579  0.72353341  0.82118416    -0.53700
C453        C  0.24219173  0.72389078  0.83199152     0.09500
C454        C  0.23388050  0.72326645  0.89124699     0.20500
C455        C  0.29154847  0.75345764  0.90282575    -0.54400
C456        C  0.25462575  0.75370193  0.91562014     0.09600
C457        C  0.29211579  0.69141728  0.89908405    -0.53900
C458        C  0.25542337  0.69181890  0.91189186     0.10200
H459        H  0.28957414  0.72316067  0.78174510     0.14700
H460        H  0.20381103  0.72306639  0.90001709     0.00400
H461        H  0.31039779  0.77215726  0.91786293     0.15000
H462        H  0.31179022  0.67276766  0.91442767     0.14800
C463        C  0.24461586  0.62156503  0.01237508     0.86600
C464        C  0.21559768  0.64164119  0.04662113    -0.53700
C465        C  0.22030282  0.67632779  0.04862167     0.09500
C466        C  0.25125470  0.68818441  0.01231182     0.20500
C467        C  0.24124021  0.63828320  0.95824178    -0.54400
C468        C  0.24392178  0.67295353  0.95844111     0.09600
C469        C  0.28189896  0.63524745  0.03316735    -0.53900
C470        C  0.28587082  0.66928875  0.02927008     0.10200
H471        H  0.19502572  0.62963131  0.07021077     0.14700
H472        H  0.25558816  0.71588903  0.01238548     0.00400
H473        H  0.24208714  0.62401626  0.92194109     0.15000
H474        H  0.30385982  0.62011002  0.05069759     0.14800
O475        O  0.45374067  0.69287529  0.72777562    -0.57700
C476        C  0.34463412  0.72034422  0.85291705     0.74900
O477        O  0.44714547  0.74286170  0.86654693    -0.58900
C478        C  0.46444162  0.72145463  0.71138855     0.74900
C479        C  0.36306464  0.72473906  0.72288394     0.77300
Cd480      Cd  0.41321927  0.71697073  0.79877773     1.37500
O481        O  0.36030883  0.69176290  0.84029132    -0.57700
O482        O  0.37435255  0.69460823  0.73449746    -0.56500
C483        C  0.46402217  0.71583722  0.88135415     0.77200
O484        O  0.37484876  0.75039676  0.74833509    -0.58900
O485        O  0.36299510  0.74712287  0.84575787    -0.57400
O486        O  0.45263193  0.74788618  0.73627840    -0.57300
O487        O  0.45552907  0.68772041  0.85976638    -0.56500
O488        O  0.04562630  0.80051083  0.88203322    -0.57700
C489        C  0.09013472  0.72624337  0.82353777     0.74900
O490        O  0.11909876  0.74452767  0.97870085    -0.58900
C491        C  0.04488330  0.81644116  0.92516336     0.74900
C492        C  0.49604815  0.71916311  0.91546889     0.77300
Cd493      Cd  0.06475447  0.74812180  0.91848945     1.37500
O494        O  0.07062212  0.75336898  0.82869160    -0.57700
O495        O  0.50023512  0.74693812  0.93968000    -0.56500
C496        C  0.13616453  0.76569771  0.95063324     0.77200
O497        O  0.52401924  0.69904449  0.91141472    -0.58900
O498        O  0.09289645  0.70615276  0.86140698    -0.57400
O499        O  0.04859166  0.79949847  0.96649893    -0.57300
O500        O  0.12109389  0.77490620  0.90908771    -0.56500
O501        O  0.34358862  0.75632619  0.33777830    -0.57700
C502        C  0.24050745  0.73131031  0.21202042     0.74900
O503        O  0.32470823  0.68739324  0.24771655    -0.58900
C504        C  0.35980076  0.72847280  0.35155133     0.74900
C505        C  0.24221365  0.72173512  0.38067539     0.77300
Cd506      Cd  0.29176880  0.72771254  0.29859074     1.37500
O507        O  0.25452781  0.75831209  0.23072702    -0.57700
O508        O  0.24913399  0.75139582  0.36460529    -0.56500
C509        C  0.34036255  0.71114001  0.22318606     0.77200
O510        O  0.26028000  0.69645045  0.36094688    -0.58900
O511        O  0.24908907  0.70353694  0.23433627    -0.57400
O512        O  0.34217200  0.70110779  0.34588025    -0.57300
O513        O  0.33356290  0.74221750  0.23573306    -0.56500
O514        O  0.15397060  0.63441605  0.38376228    -0.57700
C515        C  0.11558155  0.71094640  0.32309289     0.74900
O516        O  0.08744343  0.69846205  0.47831092    -0.58900
C517        C  0.15402476  0.62024115  0.42760211     0.74900
C518        C  0.21053973  0.71504814  0.41353261     0.77300
Cd519      Cd  0.14049226  0.68904820  0.41749917     1.37500
O520        O  0.13209426  0.68227039  0.32713321    -0.57700
O521        O  0.20565780  0.68482820  0.42715022    -0.56500
C522        C  0.06807530  0.67891713  0.44968327     0.77200
O523        O  0.18369967  0.73636559  0.41918535    -0.58900
O524        O  0.11620463  0.73164445  0.36114463    -0.57400
O525        O  0.15218080  0.63891135  0.46828921    -0.57300
O526        O  0.08190425  0.66796281  0.40774713    -0.56500
C527        C  0.05415217  0.72345594  0.63149958     0.86600
C528        C  0.04294120  0.69206666  0.60001001    -0.53700
C529        C  0.00634942  0.69161376  0.58738763     0.09500
C530        C  0.48388472  0.72265285  0.60897616     0.20500
C531        C  0.04079125  0.75407935  0.59849171    -0.54400
C532        C  0.50389658  0.75345258  0.58554489     0.09600
C533        C  0.02878459  0.72421900  0.67908415    -0.53900
C534        C  0.49202777  0.72362989  0.66828298     0.10200
H535        H  0.06305403  0.67369300  0.58399576     0.14700
H536        H  0.45388845  0.72174393  0.60009232     0.00400
H537        H  0.05924032  0.77308661  0.58409936     0.15000
H538        H  0.03921826  0.72423479  0.71852858     0.14800
C539        C  0.49150753  0.61927435  0.48811535     0.86600
C540        C  0.49169030  0.63699214  0.54221974    -0.53700
C541        C  0.99504247  0.67145601  0.54141643     0.09500
C542        C  0.00008930  0.68556009  0.48704170     0.20500
C543        C  0.46112151  0.63924045  0.45701772    -0.54400
C544        C  0.46693901  0.67386124  0.45403041     0.09600
C545        C  0.02719560  0.63150443  0.46173516    -0.53900
C546        C  0.03270572  0.66531935  0.46522818     0.10200
H547        H  0.49310532  0.62344603  0.57840976     0.14700
H548        H  0.00527268  0.71314285  0.48675134     0.00400
H549        H  0.43973116  0.62695397  0.43483010     0.15000
H550        H  0.04693187  0.61509188  0.44091767     0.14800
C551        C  0.39987234  0.72740313  0.36766606     0.86600
C552        C  0.42554719  0.72637234  0.32044242    -0.53700
C553        C  0.46221187  0.72672879  0.33193492     0.09500
C554        C  0.46985902  0.72771615  0.39134460     0.20500
C555        C  0.41267926  0.69681255  0.40100047    -0.54400
C556        C  0.44934154  0.69719203  0.41467386     0.09600
C557        C  0.41090073  0.75875449  0.39904223    -0.53900
C558        C  0.44741131  0.75891070  0.41226403     0.10200
H559        H  0.41543026  0.72610578  0.28083115     0.14700
H560        H  0.99979300  0.72845378  0.40067519     0.00400
H561        H  0.39393214  0.67799567  0.41522388     0.15000
H562        H  0.39071655  0.77719476  0.41469550     0.14800
C563        C  0.45750086  0.83018137  0.51338546     0.86600
C564        C  0.48875390  0.81155302  0.54489045    -0.53700
C565        C  0.48533036  0.77654926  0.54660981     0.09500
C566        C  0.45344710  0.76344426  0.51245294     0.20500
C567        C  0.45928213  0.81316196  0.45894729    -0.54400
C568        C  0.45819179  0.77855900  0.45870148     0.09600
C569        C  0.42237821  0.81559411  0.53827944    -0.53900
C570        C  0.41923535  0.78148940  0.53384475     0.10200
H571        H  0.00897587  0.82474502  0.56802014     0.14700
H572        H  0.45011495  0.73561635  0.51200999     0.00400
H573        H  0.45695562  0.82705047  0.42312761     0.15000
H574        H  0.40147562  0.83062327  0.55924877     0.14800
O575        O  0.20392674  0.69367824  0.77083583    -0.57700
C576        C  0.09445274  0.72183152  0.64761696     0.74900
O577        O  0.12308895  0.74794761  0.75474309    -0.58900
C578        C  0.21450777  0.72213569  0.78897050     0.74900
C579        C  0.21301739  0.71811656  0.61961741     0.77300
Cd580      Cd  0.16280162  0.71774061  0.70197747     1.37500
O581        O  0.11061420  0.69323294  0.65747451    -0.57700
O582        O  0.20477040  0.68958641  0.63886318    -0.56500
C583        C  0.11294843  0.72143600  0.77841249     0.77200
O584        O  0.19592195  0.74483643  0.63644372    -0.58900
O585        O  0.11212263  0.74871732  0.65805749    -0.57400
O586        O  0.20230299  0.74873877  0.76607332    -0.57300
O587        O  0.12568885  0.69192745  0.76447946    -0.56500
O588        O  0.29514131  0.80480674  0.61952619    -0.57700
C589        C  0.33998970  0.73069290  0.67843806     0.74900
O590        O  0.27317271  0.70218884  0.58870443    -0.58900
C591        C  0.29489293  0.81965291  0.57619417     0.74900
C592        C  0.38513503  0.76548573  0.54970196     0.77300
Cd593      Cd  0.31377141  0.75125065  0.58370395     1.37500
O594        O  0.32259035  0.75892891  0.67379347    -0.57700
O595        O  0.37144894  0.77469424  0.59257691    -0.56500
C596        C  0.24510288  0.72221452  0.58618932     0.77200
O597        O  0.36652922  0.74546395  0.52082815    -0.58900
O598        O  0.34009959  0.70967973  0.64072253    -0.57400
O599        O  0.29878827  0.80165674  0.53514053    -0.57300
O600        O  0.24912828  0.75042114  0.56444428    -0.56500
O601        O  0.08902064  0.50215942  0.67276116    -0.57700
C602        C  0.19276021  0.47966352  0.78540292     0.74900
O603        O  0.11723188  0.92409540  0.75271675    -0.58900
C604        C  0.07242505  0.97620025  0.65501396     0.74900
C605        C  0.19407925  0.95891955  0.61961527     0.77300
Cd606      Cd  0.14237389  0.96853765  0.70162713     1.37500
O607        O  0.17559494  0.50498656  0.76504528    -0.57700
O608        O  0.18491909  0.98894594  0.63477631    -0.56500
C609        C  0.10026438  0.94631578  0.78147613     0.77200
O610        O  0.17691807  0.93439040  0.63933830    -0.58900
O611        O  0.18772584  0.95047301  0.76536876    -0.57400
O612        O  0.09054868  0.94802583  0.65317736    -0.57300
O613        O  0.10246794  0.97763550  0.77085098    -0.56500
O614        O  0.32839641  0.90993971  0.65640194    -0.57700
C615        C  0.29379073  0.85639777  0.57460961     0.74900
O616        O  0.25188729  0.97304860  0.58057089    -0.58900
C617        C  0.33035151  0.94036811  0.67233301     0.74900
C618        C  0.36883585  0.93113637  0.51923377     0.77300
Cd619      Cd  0.30092575  0.92689270  0.57463736     1.37500
O620        O  0.29710908  0.87355186  0.61616328    -0.57700
O621        O  0.36191514  0.95210073  0.55560565    -0.56500
C622        C  0.22691200  0.95156262  0.58741435     0.77200
O623        O  0.34123880  0.91688806  0.49892448    -0.58900
O624        O  0.29236951  0.87224652  0.53215483    -0.57400
O625        O  0.31649055  0.96361716  0.64446200    -0.57300
O626        O  0.23448988  0.92133103  0.57365536    -0.56500
C627        C  0.40965031  0.97122768  0.36391924     0.86600
C628        C  0.42042813  0.94093684  0.39707613    -0.53700
C629        C  0.45663740  0.93948197  0.41218292     0.09500
C630        C  0.47972181  0.96775574  0.38789520     0.20500
C631        C  0.42326389  0.00283420  0.39428877    -0.54400
C632        C  0.46013472  0.00095827  0.40716535     0.09600
C633        C  0.43491147  0.96798675  0.31689433    -0.53900
C634        C  0.47156016  0.96616775  0.32853822     0.10200
H635        H  0.39983709  0.92395629  0.41155817     0.14700
H636        H  0.00964827  0.96595726  0.39755055     0.00400
H637        H  0.40496109  0.52365388  0.40719542     0.15000
H638        H  0.42470706  0.96863560  0.27733255     0.14800
C639        C  0.45450326  0.87112665  0.51163313     0.86600
C640        C  0.47240251  0.88918766  0.46510478    -0.53700
C641        C  0.46466271  0.92362204  0.46314731     0.09500
C642        C  0.44274331  0.93748867  0.51114766     0.20500
C643        C  0.46984903  0.89025994  0.55947604    -0.54400
C644        C  0.46445755  0.92491576  0.55863007     0.09600
C645        C  0.41336975  0.88365177  0.50719279    -0.53900
C646        C  0.40703529  0.91766803  0.51007290     0.10200
H647        H  0.48492548  0.87567105  0.43238402     0.14700
H648        H  0.43778794  0.96544443  0.51093061     0.00400
H649        H  0.98470476  0.87779191  0.59064124     0.15000
H650        H  0.39017461  0.86715113  0.50150495     0.14800
C651        C  0.03220880  0.97819236  0.63997791     0.86600
C652        C  0.00661283  0.98230835  0.68654830    -0.53700
C653        C  0.47007775  0.98480907  0.67422686     0.09500
C654        C  0.46242295  0.98283380  0.61475440     0.20500
C655        C  0.01812664  0.94677431  0.60989618    -0.54400
C656        C  0.48155499  0.94918011  0.59621774     0.09600
C657        C  0.02252142  0.00847906  0.60625654    -0.53900
C658        C  0.98634984  0.51063892  0.59084205     0.10200
H659        H  0.01644411  0.98143197  0.72628265     0.14700
H660        H  0.43262937  0.98508172  0.60448658     0.00400
H661        H  0.03605947  0.92553821  0.59762437     0.15000
H662        H  0.04365949  0.52490904  0.59182794     0.14800
C663        C  0.49169893  0.57829675  0.49051973     0.86600
C664        C  0.47447760  0.55967062  0.44337794    -0.53700
C665        C  0.47774338  0.52486239  0.44482550     0.09500
C666        C  0.99919445  0.51154722  0.49206097     0.20500
C667        C  0.47328700  0.56160650  0.53789303    -0.54400
C668        C  0.97871580  0.52683374  0.54013399     0.09600
C669        C  0.03205541  0.56358100  0.49423301    -0.53900
C670        C  0.03615623  0.52931935  0.49223369     0.10200
H671        H  0.46032069  0.57262465  0.41205333     0.14700
H672        H  0.00248382  0.98345721  0.49275470     0.00400
H673        H  0.46223198  0.57600450  0.57077452     0.15000
H674        H  0.05631326  0.57880056  0.49964494     0.14800
O675        O  0.35370854  0.94447191  0.33374934    -0.57700
C676        C  0.24870858  0.97035721  0.21648437     0.74900
O677        O  0.26441637  0.50569425  0.36746700    -0.58900
C678        C  0.36930115  0.97165052  0.34913851     0.74900
C679        C  0.34173825  0.99054937  0.22070348     0.77300
Cd680      Cd  0.29904820  0.97442319  0.30219343     1.37500
O681        O  0.26282574  0.94317371  0.23577645    -0.57700
O682        O  0.33830011  0.95959195  0.23365541    -0.56500
C683        C  0.24735454  0.98031339  0.38472762     0.77200
O684        O  0.32627843  0.51438196  0.24816691    -0.58900
O685        O  0.25635227  0.99842768  0.23861659    -0.57400
O686        O  0.35018114  0.99933346  0.34833901    -0.57300
O687        O  0.25650457  0.95093654  0.36658626    -0.56500
O688        O  0.11569358  0.53340927  0.34889030    -0.57700
C689        C  0.15286154  0.58363297  0.42994344     0.74900
O690        O  0.10172306  0.52699700  0.50536700    -0.58900
C691        C  0.11071694  0.00341206  0.33271352     0.74900
C692        C  0.21457987  0.48637526  0.41763038     0.77300
Cd693      Cd  0.14162198  0.51383485  0.43066991     1.37500
O694        O  0.14806938  0.56648073  0.38871084    -0.57700
O695        O  0.20860968  0.51532244  0.43794508    -0.56500
C696        C  0.07358741  0.51348785  0.48539779     0.77200
O697        O  0.18804512  0.96605329  0.41829490    -0.58900
O698        O  0.15391201  0.56802257  0.47259208    -0.57400
O699        O  0.12210256  0.97909520  0.36055034    -0.57300
O700        O  0.07976911  0.49086913  0.45111763    -0.56500
O701        O  0.33897416  0.50339667  0.83107292    -0.57700
C702        C  0.44244845  0.98136661  0.71585744     0.74900
O703        O  0.42642452  0.93385979  0.85698761    -0.58900
C704        C  0.32251003  0.97710773  0.84703349     0.74900
C705        C  0.34989764  0.94913414  0.71898170     0.77300
Cd706      Cd  0.39239764  0.97025744  0.79951836     1.37500
O707        O  0.42741731  0.50689712  0.73981409    -0.57700
O708        O  0.35184283  0.98035179  0.73185289    -0.56500
C709        C  0.44401542  0.95734146  0.87972761     0.77200
O710        O  0.36715251  0.92667631  0.74585950    -0.58900
O711        O  0.43526227  0.95196059  0.73204941    -0.57400
O712        O  0.34080083  0.94903770  0.84690559    -0.57300
O713        O  0.43552049  0.98796153  0.86833740    -0.56500
O714        O  0.07829578  0.90678479  0.84187225    -0.57700
C715        C  0.04360663  0.85322946  0.92613182     0.74900
O716        O  0.09069764  0.91484489  0.99998031    -0.58900
C717        C  0.08054373  0.93726578  0.82764715     0.74900
C718        C  0.47645850  0.94824993  0.91114272     0.77300
Cd719      Cd  0.05030189  0.92371872  0.92466609     1.37500
O720        O  0.04783861  0.86921836  0.88438819    -0.57700
O721        O  0.48458984  0.91731562  0.91764177    -0.56500
C722        C  0.11789812  0.93006325  0.98078647     0.77200
O723        O  0.50045763  0.96949169  0.92491521    -0.58900
O724        O  0.54117246  0.87026492  0.96823104    -0.57400
O725        O  0.06667526  0.96040518  0.85679603    -0.57300
O726        O  0.11054938  0.95047533  0.94481642    -0.56500
C727        C  0.15966195  0.97648471  0.13883190     0.86600
C728        C  0.18488294  0.97251856  0.18548419    -0.53700
C729        C  0.22146170  0.96983149  0.17365058     0.09500
C730        C  0.22966615  0.97143772  0.11417175     0.20500
C731        C  0.17405108  0.00786326  0.10989236    -0.54400
C732        C  0.21089391  0.00515978  0.09632088     0.09600
C733        C  0.16956818  0.94615761  0.10388358    -0.53900
C734        C  0.20574003  0.94370182  0.08874602     0.10200
H735        H  0.17465670  0.97281521  0.22511360     0.11500
H736        H  0.25953257  0.96893743  0.10417864     0.00400
H737        H  0.15615111  0.52888372  0.09783421     0.15000
H738        H  0.14850170  0.92969704  0.08869109     0.14800
C739        C  0.20503618  0.87263921  0.98948539     0.86600
C740        C  0.22044035  0.89120427  0.94184172    -0.53700
C741        C  0.21435017  0.92582795  0.94268931     0.09500
C742        C  0.19173110  0.93882473  0.98984812     0.20500
C743        C  0.22211087  0.89195859  0.03629826    -0.54400
C744        C  0.21370023  0.92637817  0.03801620     0.09600
C745        C  0.16374519  0.88442430  0.99378208    -0.53900
C746        C  0.15650104  0.91814927  0.99067281     0.10200
H747        H  0.23603752  0.87840907  0.91104119     0.14700
H748        H  0.18607324  0.96670182  0.99003846     0.00400
H749        H  0.23464702  0.87927629  0.06915583     0.15000
H750        H  0.14099764  0.86751938  0.99969238     0.14800
C751        C  0.28220609  0.97861156  0.86192188     0.86600
C752        C  0.27186912  0.50961718  0.89508855    -0.53700
C753        C  0.23576909  0.51151800  0.91089560     0.09500
C754        C  0.21228090  0.98288219  0.88696546     0.20500
C755        C  0.26848433  0.94768117  0.89236783    -0.54400
C756        C  0.23173148  0.94983834  0.90577023     0.09600
C757        C  0.25681147  0.98114758  0.81522993    -0.53900
C758        C  0.22019461  0.98346400  0.82738979     0.10200
H759        H  0.29269277  0.52669272  0.90933506     0.14700
H760        H  0.18241136  0.98503997  0.89707185     0.00400
H761        H  0.28669103  0.92692566  0.90471645     0.15000
H762        H  0.26687657  0.97966980  0.77555362     0.14800
C763        C  0.24403287  0.58029891  0.01121488     0.86600
C764        C  0.22436055  0.56304697  0.96470938    -0.53700
C765        C  0.22857718  0.52819683  0.96223611     0.09500
C766        C  0.24907945  0.51328490  0.00993184     0.20500
C767        C  0.22666834  0.56298717  0.05912283    -0.54400
C768        C  0.22862916  0.52802559  0.05778909     0.09600
C769        C  0.28384141  0.56430154  0.00687065    -0.53900
C770        C  0.28671583  0.52994639  0.00921249     0.10200
H771        H  0.21307228  0.57696271  0.93206324     0.14700
H772        H  0.25139305  0.98514325  0.00918601     0.00400
H773        H  0.21353748  0.57680749  0.09109534     0.15000
H774        H  0.30866456  0.57840289  0.00097471     0.14800
O775        O  0.01650368  0.94362935  0.26652489    -0.57700
C776        C  0.11938496  0.97696753  0.15433285     0.74900
O777        O  0.01286374  0.50832627  0.13988702    -0.58900
C778        C  0.99887367  0.96931525  0.28633308     0.74900
C779        C  0.09102962  0.99638745  0.28538889     0.77300
Cd780      Cd  0.04928862  0.97856272  0.20261477     1.37500
O781        O  0.10426899  0.94977803  0.16945376    -0.57700
O782        O  0.08831397  0.96552525  0.27053235    -0.56500
C783        C  0.99698622  0.98238856  0.12128272     0.77200
O784        O  0.07475585  0.52004385  0.25958476    -0.58900
O785        O  0.09985919  0.00442219  0.15596591    -0.57400
O786        O  0.00347355  0.99812382  0.26577592    -0.57300
O787        O  0.00749266  0.95326571  0.13766617    -0.56500
O788        O  0.39394766  0.56537390  0.12069190    -0.57700
C789        C  0.36091537  0.99807824  0.17347385     0.74900
O790        O  0.35268113  0.52552491  0.00013052    -0.58900
C791        C  0.39989540  0.58164015  0.07962156     0.74900
C792        C  0.46421009  0.48747032  0.08850290     0.77300
Cd793      Cd  0.39031275  0.51166018  0.07633965     1.37500
O794        O  0.36471295  0.52839534  0.15930999    -0.57700
O795        O  0.45644048  0.51686714  0.07248536    -0.56500
C796        C  0.32342343  0.51321691  0.01822824     0.77200
O797        O  0.43941226  0.96553760  0.08344379    -0.58900
O798        O  0.37258101  0.97431141  0.14358570    -0.57400
O799        O  0.40261122  0.56508972  0.03721510    -0.57300
O800        O  0.32773650  0.49096106  0.05255205    -0.56500
O801        O  0.59362010  0.25855836  0.16351491    -0.57700
C802        C  0.49030264  0.22784170  0.28941384     0.74900
O803        O  0.51178700  0.19826384  0.13860154    -0.58900
C804        C  0.61061539  0.23085922  0.14943031     0.74900
C805        C  0.59263392  0.21803549  0.27890296     0.77300
Cd806      Cd  0.54267183  0.22943736  0.20336023     1.37500
O807        O  0.50308909  0.25584553  0.27371114    -0.57700
O808        O  0.58196649  0.24853926  0.26909775    -0.56500
C809        C  0.49309806  0.22337461  0.12067528     0.77200
O810        O  0.58024076  0.19326824  0.25199288    -0.58900
O811        O  0.50065212  0.20098928  0.26449560    -0.57400
O812        O  0.59381863  0.20312319  0.15527537    -0.57300
O813        O  0.49940953  0.25302393  0.13876132    -0.56500
O814        O  0.87377187  0.17324539  0.16790678    -0.57700
C815        C  0.90107987  0.11830768  0.08073434     0.74900
O816        O  0.85034378  0.17285983  0.01249971    -0.58900
C817        C  0.86295180  0.20343111  0.17861885     0.74900
C818        C  0.96147987  0.21632076  0.08747768     0.77300
Cd819      Cd  0.89139372  0.18833809  0.08188231     1.37500
O820        O  0.89809509  0.13474627  0.12326747    -0.57700
O821        O  0.95723353  0.18627100  0.07156557    -0.56500
C822        C  0.82197141  0.18478380  0.03612972     0.77200
O823        O  0.93402965  0.23688392  0.08365055    -0.58900
O824        O  0.90287190  0.13485002  0.03902316    -0.57400
O825        O  0.86977284  0.22661550  0.14686094    -0.57300
O826        O  0.82681187  0.20767924  0.06986947    -0.56500
C827        C  0.65075405  0.23054238  0.13316655     0.86600
C828        C  0.66107366  0.26147205  0.10163113    -0.53700
C829        C  0.69764693  0.26223269  0.08864013     0.09500
C830        C  0.72088280  0.23201840  0.10992966     0.20500
C831        C  0.66476260  0.19949005  0.10020146    -0.54400
C832        C  0.70152953  0.20045196  0.08691268     0.09600
C833        C  0.67609813  0.23116022  0.18047812    -0.53900
C834        C  0.71277530  0.23203578  0.16924435     0.10200
H835        H  0.64048093  0.27907458  0.08575125     0.14700
H836        H  0.75082047  0.23309996  0.10063196     0.00400
H837        H  0.64675480  0.17977579  0.08617396     0.15000
H838        H  0.66578211  0.23072596  0.22002768     0.14800
C839        C  0.70824452  0.33165206  0.98741977     0.86600
C840        C  0.70921413  0.31576479  0.04191341    -0.53700
C841        C  0.70815992  0.28118914  0.04219598     0.09500
C842        C  0.70416097  0.26496615  0.98844750     0.20500
C843        C  0.73996798  0.31245882  0.95669222    -0.54400
C844        C  0.73649581  0.27741200  0.95498733     0.09600
C845        C  0.67350747  0.31640721  0.96144970    -0.53900
C846        C  0.67027740  0.28238211  0.96603264     0.10200
H847        H  0.70669598  0.33040911  0.07766310     0.14700
H848        H  0.70075160  0.23715589  0.98898877     0.00400
H849        H  0.76027646  0.32522481  0.93362970     0.15000
H850        H  0.65283745  0.33099784  0.94008836     0.14800
C851        C  0.80425392  0.22243770  0.86876134     0.86600
C852        C  0.77904033  0.22352772  0.82116038    -0.53700
C853        C  0.74220615  0.22388720  0.83196809     0.09500
C854        C  0.73389561  0.22326646  0.89122383     0.20500
C855        C  0.79156578  0.25345452  0.90279967    -0.54400
C856        C  0.75464266  0.25370157  0.91559432     0.09600
C857        C  0.79212846  0.19141407  0.89906510    -0.53900
C858        C  0.75543526  0.19181896  0.91187308     0.10200
H859        H  0.78958867  0.22315313  0.78172011     0.14700
H860        H  0.70382533  0.22306851  0.89999347     0.00400
H861        H  0.81041518  0.27215166  0.91783373     0.15000
H862        H  0.81179975  0.17276523  0.91440906     0.14800
C863        C  0.74460895  0.12157123  0.01236453     0.86600
C864        C  0.71558440  0.14164878  0.04659671    -0.53700
C865        C  0.72029060  0.17633546  0.04859663     0.09500
C866        C  0.75124925  0.18818977  0.01229479     0.20500
C867        C  0.74124435  0.13828522  0.95822628    -0.54400
C868        C  0.74392763  0.17295652  0.95842349     0.09600
C869        C  0.78188791  0.13525409  0.03316901    -0.53900
C870        C  0.78586181  0.16929501  0.02926650     0.10200
H871        H  0.69501097  0.12964078  0.07018010     0.14700
H872        H  0.75558501  0.21589475  0.01236630     0.00400
H873        H  0.74209591  0.12402234  0.92194439     0.15000
H874        H  0.80384906  0.12011609  0.05070084     0.14800
O875        O  0.95374799  0.19286574  0.72773308    -0.57700
C876        C  0.84464936  0.22033870  0.85289198     0.74900
O877        O  0.94715682  0.24286369  0.86651412    -0.58900
C878        C  0.96445427  0.22144604  0.71135629     0.74900
C879        C  0.86308170  0.22472060  0.72285609     0.77300
Cd880      Cd  0.91323483  0.21695983  0.79875026     1.37500
O881        O  0.86033077  0.19175531  0.84029317    -0.57700
O882        O  0.87436924  0.19459065  0.73447544    -0.56500
C883        C  0.96403455  0.21584226  0.88133123     0.77200
O884        O  0.87486459  0.25038066  0.74830275    -0.58900
O885        O  0.86300265  0.24711798  0.84570095    -0.57400
O886        O  0.95265221  0.24787510  0.73625877    -0.57300
O887        O  0.95554472  0.18772215  0.85975079    -0.56500
O888        O  0.54561706  0.30053279  0.88203489    -0.57700
C889        C  0.59012922  0.22626807  0.82350475     0.74900
O890        O  0.61910742  0.24454626  0.97866249    -0.58900
C891        C  0.54488495  0.31645712  0.92517031     0.74900
C892        C  0.99605870  0.21917385  0.91544780     0.77300
Cd893      Cd  0.56475933  0.24814181  0.91846337     1.37500
O894        O  0.57062568  0.25339915  0.82866298    -0.57700
O895        O  0.00024012  0.24694992  0.93965874    -0.56500
C896        C  0.63617795  0.26570659  0.95058365     0.77200
O897        O  0.02403360  0.19905990  0.91139324    -0.58900
O898        O  0.59288279  0.20617357  0.86136994    -0.57400
O899        O  0.54860653  0.29950953  0.96649908    -0.57300
O900        O  0.62110884  0.27490992  0.90903408    -0.56500
O901        O  0.84358484  0.25632496  0.33775240    -0.57700
C902        C  0.74049461  0.23132318  0.21199227     0.74900
O903        O  0.82471424  0.18741812  0.24767856    -0.58900
C904        C  0.85979287  0.22846946  0.35152377     0.74900
C905        C  0.74219756  0.22174873  0.38063458     0.77300
Cd906      Cd  0.79175972  0.22772306  0.29855926     1.37500
O907        O  0.75450897  0.25832488  0.23070896    -0.57700
O908        O  0.74913186  0.25141072  0.36458254    -0.56500
C909        C  0.84034864  0.21117207  0.22313881     0.77200
O910        O  0.76025471  0.19646225  0.36089492    -0.58900
O911        O  0.74908313  0.20354747  0.23429749    -0.57400
O912        O  0.84216036  0.20110690  0.34584797    -0.57300
O913        O  0.83353230  0.24224730  0.23568413    -0.56500
O914        O  0.65396294  0.13442159  0.38372541    -0.57700
C915        C  0.61555455  0.21095203  0.32305123     0.74900
O916        O  0.58742546  0.19846500  0.47825651    -0.58900
C917        C  0.65402814  0.12025117  0.42756915     0.74900
C918        C  0.71052002  0.21506331  0.41348545     0.77300
Cd919      Cd  0.64047521  0.18905469  0.41745196     1.37500
O920        O  0.63207536  0.18227916  0.32708435    -0.57700
O921        O  0.70563884  0.18484435  0.42710718    -0.56500
C922        C  0.56806335  0.17891046  0.44963640     0.77200
O923        O  0.68367749  0.23637920  0.41912796    -0.58900
O924        O  0.61617126  0.23164641  0.36110816    -0.57400
O925        O  0.65218440  0.13892539  0.46825215    -0.57300
O926        O  0.58189653  0.16794895  0.40770677    -0.56500
C927        C  0.55416283  0.22345563  0.63146310     0.86600
C928        C  0.54295284  0.19206603  0.59997376    -0.53700
C929        C  0.50636098  0.19161127  0.58735385     0.09500
C930        C  0.98389463  0.22264872  0.60894283     0.20500
C931        C  0.54079905  0.25407841  0.59845568    -0.54400
C932        C  0.00390422  0.25344940  0.58550978     0.09600
C933        C  0.52879590  0.22421733  0.67904893    -0.53900
C934        C  0.99203895  0.22362515  0.66824894     0.10200
H935        H  0.56306876  0.17369047  0.58395658     0.14700
H936        H  0.95389971  0.22173810  0.60006010     0.00400
H937        H  0.55924593  0.27308605  0.58406308     0.15000
H938        H  0.53922915  0.22423328  0.71848881     0.14800
C939        C  0.99150160  0.11927070  0.48809235     0.86600
C940        C  0.99169678  0.13698863  0.54219556    -0.53700
C941        C  0.49504966  0.17145166  0.54138820     0.09500
C942        C  0.50008459  0.18555513  0.48701122     0.20500
C943        C  0.96110877  0.13923594  0.45700594    -0.54400
C944        C  0.96692731  0.17385661  0.45401383     0.09600
C945        C  0.52718365  0.13149867  0.46169486    -0.53900
C946        C  0.53269502  0.16531310  0.46518410     0.10200
H947        H  0.99311668  0.12344316  0.57838505     0.14700
H948        H  0.50526948  0.21313529  0.48671808     0.00400
H949        H  0.93971711  0.12694911  0.43482662     0.15000
H950        H  0.54691791  0.11508282  0.44087560     0.14800
C951        C  0.89986428  0.22739620  0.36764034     0.86600
C952        C  0.92553828  0.22635655  0.32041601    -0.53700
C953        C  0.96220303  0.22671182  0.33190605     0.09500
C954        C  0.96985158  0.22770526  0.39131570     0.20500
C955        C  0.91266751  0.19680805  0.40098289    -0.54400
C956        C  0.94933064  0.19718566  0.41465399     0.09600
C957        C  0.91089773  0.25875002  0.39900796    -0.53900
C958        C  0.94740815  0.25890456  0.41222945     0.10200
H959        H  0.91542038  0.22608934  0.28080516     0.14700
H960        H  0.49978295  0.22844147  0.40064267     0.00400
H961        H  0.89392027  0.17799656  0.41520973     0.15000
H962        H  0.89071321  0.27719547  0.41466089     0.14800
C963        C  0.95750207  0.33017556  0.51335354     0.86600
C964        C  0.98875793  0.31154809  0.54485406    -0.53700
C965        C  0.98533570  0.27654411  0.54657326     0.09500
C966        C  0.95345088  0.26343876  0.51241900     0.20500
C967        C  0.95928099  0.31315752  0.45891378    -0.54400
C968        C  0.95819111  0.27855388  0.45866649     0.09600
C969        C  0.92238174  0.31558672  0.53825074    -0.53900
C970        C  0.91923967  0.28148211  0.53381520     0.10200
H971        H  0.50897910  0.32473988  0.56798131     0.14700
H972        H  0.95011848  0.23560921  0.51197666     0.00400
H973        H  0.95695375  0.32704777  0.42309566     0.15000
H974        H  0.90147794  0.33061658  0.55922268     0.14800
O975        O  0.70392792  0.19367916  0.77082170    -0.57700
C976        C  0.59446334  0.22183429  0.64758265     0.74900
O977        O  0.62309028  0.24796497  0.75470799    -0.58900
C978        C  0.71451997  0.22213500  0.78894837     0.74900
C979        C  0.71302661  0.21810213  0.61959852     0.77300
Cd980      Cd  0.66280800  0.21774681  0.70195625     1.37500
O981        O  0.61062816  0.19323636  0.65743554    -0.57700
O982        O  0.70477022  0.18957763  0.63885464    -0.56500
C983        C  0.61294501  0.22145667  0.77838175     0.77200
O984        O  0.69593787  0.24482905  0.63641251    -0.58900
O985        O  0.61212845  0.24872130  0.65803360    -0.57400
O986        O  0.70232255  0.24873867  0.76604563    -0.57300
O987        O  0.62568497  0.19194622  0.76445795    -0.56500
O988        O  0.79516552  0.30477907  0.61953586    -0.57700
C989        C  0.84000741  0.23067084  0.67840980     0.74900
O990        O  0.77319061  0.20216805  0.58874066    -0.58900
C991        C  0.79489736  0.31962754  0.57620553     0.74900
C992        C  0.88514052  0.26547693  0.54967338     0.77300
Cd993      Cd  0.81378238  0.25122726  0.58368447     1.37500
O994        O  0.82259364  0.25890035  0.67377297    -0.57700
O995        O  0.87144768  0.27469457  0.59253960    -0.56500
C996        C  0.74511683  0.22218471  0.58617414     0.77200
O997        O  0.86654350  0.24544180  0.52080990    -0.58900
O998        O  0.84013152  0.20966240  0.64068759    -0.57400
O999        O  0.79876978  0.30163358  0.53514619    -0.57300
O1000       O  0.74914172  0.25037539  0.56438083    -0.56500
O1001       O  0.58901510  0.00218559  0.67278061    -0.57700
C1002       C  0.69275336  0.97967149  0.78541456     0.74900
O1003       O  0.61723768  0.42407606  0.75272752    -0.58900
C1004       C  0.57242368  0.47617359  0.65501046     0.74900
C1005       C  0.69408647  0.45889326  0.61961196     0.77300
Cd1006     Cd  0.64237797  0.46851234  0.70161994     1.37500
O1007       O  0.67559034  0.00499955  0.76506740    -0.57700
O1008       O  0.68492717  0.48891946  0.63477404    -0.56500
C1009       C  0.60027898  0.44630186  0.78148760     0.77200
O1010       O  0.67692161  0.43436419  0.63932914    -0.58900
O1011       O  0.68773493  0.45046121  0.76536838    -0.57400
O1012       O  0.59054067  0.44799533  0.65319087    -0.57300
O1013       O  0.60248784  0.47761999  0.77085554    -0.56500
O1014       O  0.82842388  0.40991748  0.65639446    -0.57700
C1015       C  0.79379988  0.35637221  0.57462344     0.74900
O1016       O  0.75189920  0.47302172  0.58058448    -0.58900
C1017       C  0.83036981  0.44034654  0.67232617     0.74900
C1018       C  0.86883275  0.43112328  0.51921740     0.77300
Cd1019     Cd  0.80093584  0.42686695  0.57463787     1.37500
O1020       O  0.79713584  0.37352595  0.61617422    -0.57700
O1021       O  0.86191383  0.45208531  0.55559240    -0.56500
C1022       C  0.72692197  0.45153642  0.58741753     0.77200
O1023       O  0.84123591  0.41687251  0.49891174    -0.58900
O1024       O  0.79236587  0.37222077  0.53216924    -0.57400
O1025       O  0.81649883  0.46359245  0.64445812    -0.57300
O1026       O  0.73449936  0.42130584  0.57365327    -0.56500
C1027       C  0.90964802  0.47123596  0.36391581     0.86600
C1028       C  0.92042648  0.44094192  0.39706716    -0.53700
C1029       C  0.95663569  0.43948746  0.41217612     0.09500
C1030       C  0.97971854  0.46776472  0.38789740     0.20500
C1031       C  0.92325818  0.50284012  0.39429297    -0.54400
C1032       C  0.96012838  0.50096550  0.40717167     0.09600
C1033       C  0.93491175  0.46800031  0.31689261    -0.53900
C1034       C  0.97156004  0.46618093  0.32854052     0.10200
H1035       H  0.89983908  0.42396046  0.41154029     0.14700
H1036       H  0.50964550  0.46596670  0.39755503     0.00400
H1037       H  0.90497138  0.02364676  0.40718713     0.15000
H1038       H  0.92470976  0.46864871  0.27733111     0.14800
C1039       C  0.95450232  0.37112067  0.51160770     0.86600
C1040       C  0.97240298  0.38918713  0.46508581    -0.53700
C1041       C  0.96466083  0.42362180  0.46313631     0.09500
C1042       C  0.94273789  0.43748214  0.51113691     0.20500
C1043       C  0.96984297  0.39025036  0.55945764    -0.54400
C1044       C  0.96444961  0.42490624  0.55861910     0.09600
C1045       C  0.91336879  0.38364332  0.50716387    -0.53900
C1046       C  0.90703185  0.41765884  0.51005161     0.10200
H1047       H  0.98492476  0.37567371  0.43236245     0.14700
H1048       H  0.93778056  0.46543853  0.51092553     0.00400
H1049       H  0.48469833  0.37778029  0.59062055     0.15000
H1050       H  0.89017454  0.36714033  0.50147041     0.14800
C1051       C  0.53220732  0.47817105  0.63997338     0.86600
C1052       C  0.50661183  0.48228882  0.68654358    -0.53700
C1053       C  0.97007708  0.48479595  0.67422196     0.09500
C1054       C  0.96242160  0.48282383  0.61475024     0.20500
C1055       C  0.51811987  0.44675661  0.60988957    -0.54400
C1056       C  0.98154885  0.44916785  0.59620993     0.09600
C1057       C  0.52252426  0.50846042  0.60625442    -0.53900
C1058       C  0.48634733  0.01065034  0.59084107     0.10200
H1059       H  0.51644308  0.48140954  0.72627860     0.14700
H1060       H  0.93262703  0.48507631  0.60448226     0.00400
H1061       H  0.53605120  0.42551743  0.59761493     0.15000
H1062       H  0.54365329  0.02492868  0.59182892     0.14800
C1063       C  0.99169559  0.07829529  0.49050343     0.86600
C1064       C  0.97448123  0.05966520  0.44336177    -0.53700
C1065       C  0.97775073  0.02485754  0.44481520     0.09500
C1066       C  0.49919977  0.01154730  0.49205740     0.20500
C1067       C  0.97328072  0.06160778  0.53787583    -0.54400
C1068       C  0.47871462  0.02683598  0.54012541     0.09600
C1069       C  0.53205323  0.06358494  0.49422688    -0.53900
C1070       C  0.53615981  0.02932377  0.49223329     0.10200
H1071       H  0.96032385  0.07261646  0.41203606     0.14700
H1072       H  0.50247569  0.48345499  0.49275359     0.00400
H1073       H  0.96222186  0.07600793  0.57075120     0.15000
H1074       H  0.55630765  0.07880961  0.49963749     0.14800
O1075       O  0.85370840  0.44447579  0.33374676    -0.57700
C1076       C  0.74870567  0.47034954  0.21648711     0.74900
O1077       O  0.76442865  0.00570027  0.36747494    -0.58900
C1078       C  0.86929906  0.47165596  0.34913254     0.74900
C1079       C  0.84172333  0.49053458  0.22068995     0.77300
Cd1080     Cd  0.79904248  0.47441889  0.30219393     1.37500
O1081       O  0.76282730  0.44316704  0.23577641    -0.57700
O1082       O  0.83827845  0.45957847  0.23364471    -0.56500
C1083       C  0.74734938  0.48030633  0.38473002     0.77200
O1084       O  0.82628409  0.01439273  0.24817851    -0.58900
O1085       O  0.75634077  0.49842051  0.23862508    -0.57400
O1086       O  0.85017675  0.49933753  0.34832961    -0.57300
O1087       O  0.75650527  0.45092861  0.36659664    -0.56500
O1088       O  0.61567977  0.03342186  0.34890140    -0.57700
C1089       C  0.65287263  0.08364270  0.42991993     0.74900
O1090       O  0.60172776  0.02702478  0.50535504    -0.58900
C1091       C  0.61072348  0.50339877  0.33270993     0.74900
C1092       C  0.71458340  0.98638264  0.41762421     0.77300
Cd1093     Cd  0.64162688  0.01384552  0.43066714     1.37500
O1094       O  0.64807837  0.06648554  0.38869260    -0.57700
O1095       O  0.70861673  0.01532640  0.43795269    -0.56500
C1096       C  0.57359539  0.01349845  0.48540549     0.77200
O1097       O  0.68804536  0.46604187  0.41831671    -0.58900
O1098       O  0.65392842  0.06803692  0.47257261    -0.57400
O1099       O  0.62209838  0.47908287  0.36055661    -0.57300
O1100       O  0.57978280  0.99086519  0.45114900    -0.56500
O1101       O  0.83896313  0.00338706  0.83107067    -0.57700
C1102       C  0.94244806  0.48135782  0.71585208     0.74900
O1103       O  0.92642704  0.43387095  0.85701504    -0.58900
C1104       C  0.82251635  0.47711817  0.84702845     0.74900
C1105       C  0.84991360  0.44911835  0.71897426     0.77300
Cd1106     Cd  0.89240310  0.47025698  0.79951482     1.37500
O1107       O  0.92743720  0.00690287  0.73985024    -0.57700
O1108       O  0.85185311  0.48033717  0.73183961    -0.56500
C1109       C  0.94402700  0.45735783  0.87972781     0.77200
O1110       O  0.86716957  0.42666522  0.74585959    -0.58900
O1111       O  0.93528259  0.45195473  0.73207592    -0.57400
O1112       O  0.84080220  0.44904553  0.84689315    -0.57300
O1113       O  0.93554159  0.48797403  0.86830394    -0.56500
O1114       O  0.57828227  0.40678016  0.84188029    -0.57700
C1115       C  0.54360639  0.35324484  0.92614869     0.74900
O1116       O  0.59071193  0.41485694  0.99999376    -0.58900
C1117       C  0.58055974  0.43726055  0.82766434     0.74900
C1118       C  0.97646792  0.44827429  0.91115396     0.77300
Cd1119     Cd  0.55030772  0.42373122  0.92468420     1.37500
O1120       O  0.54780698  0.36923778  0.88440218    -0.57700
O1121       O  0.98458441  0.41734282  0.91771090    -0.56500
C1122       C  0.61791255  0.43006794  0.98078561     0.77200
O1123       O  0.00047970  0.46951556  0.92488053    -0.58900
O1124       O  0.04120414  0.37027565  0.96825513    -0.57400
O1125       O  0.56671807  0.46040709  0.85682400    -0.57300
O1126       O  0.61056222  0.45047620  0.94481141    -0.56500
C1127       C  0.65966617  0.47646726  0.13882206     0.86600
C1128       C  0.68488393  0.47250473  0.18547772    -0.53700
C1129       C  0.72146366  0.46982106  0.17364849     0.09500
C1130       C  0.72967224  0.47142727  0.11417078     0.20500
C1131       C  0.67405398  0.50784746  0.10988333    -0.54400
C1132       C  0.71089851  0.50514715  0.09631628     0.09600
C1133       C  0.66957843  0.44614044  0.10387682    -0.53900
C1134       C  0.70575118  0.44368892  0.08874138     0.10200
H1135       H  0.67465616  0.47280111  0.22510106     0.11500
H1136       H  0.75954191  0.46892958  0.10418091     0.00400
H1137       H  0.65614764  0.02890316  0.09784407     0.15000
H1138       H  0.64851305  0.42967701  0.08868036     0.14800
C1139       C  0.70505090  0.37264005  0.98945846     0.86600
C1140       C  0.72045473  0.39120962  0.94182139    -0.53700
C1141       C  0.71436352  0.42583270  0.94267810     0.09500
C1142       C  0.69174491  0.43882501  0.98984100     0.20500
C1143       C  0.72212539  0.39195396  0.03627744    -0.54400
C1144       C  0.71371345  0.42637299  0.03800603     0.09600
C1145       C  0.66375914  0.38442397  0.99375653    -0.53900
C1146       C  0.65651539  0.41814975  0.99066024     0.10200
H1147       H  0.73605266  0.37841617  0.91101503     0.14700
H1148       H  0.68608642  0.46670120  0.99003797     0.00400
H1149       H  0.73466276  0.37926854  0.06912897     0.15000
H1150       H  0.64101229  0.36751848  0.99965600     0.14800
C1151       C  0.78221220  0.47862329  0.86191417     0.86600
C1152       C  0.77186812  0.00960462  0.89509960    -0.53700
C1153       C  0.73576818  0.01151126  0.91090507     0.09500
C1154       C  0.71228628  0.48288604  0.88695501     0.20500
C1155       C  0.76849443  0.44769317  0.89236272    -0.54400
C1156       C  0.73174174  0.44984563  0.90576236     0.09600
C1157       C  0.75681810  0.48115410  0.81522066    -0.53900
C1158       C  0.72020072  0.48346609  0.82737860     0.10200
H1159       H  0.79269558  0.02667842  0.90934642     0.14700
H1160       H  0.68241785  0.48504061  0.89706025     0.00400
H1161       H  0.78670520  0.42693804  0.90471437     0.15000
H1162       H  0.76688426  0.47967456  0.77554456     0.14800
C1163       C  0.74402706  0.08030470  0.01120885     0.86600
C1164       C  0.72435778  0.06304904  0.96470216    -0.53700
C1165       C  0.72857578  0.02819658  0.96224010     0.09500
C1166       C  0.74907651  0.01329131  0.00993846     0.20500
C1167       C  0.72666015  0.06299716  0.05911727    -0.54400
C1168       C  0.72862377  0.02803519  0.05779040     0.09600
C1169       C  0.78383580  0.06430971  0.00686955    -0.53900
C1170       C  0.78671154  0.02995490  0.00921869     0.10200
H1171       H  0.71308148  0.07695193  0.93207311     0.14700
H1172       H  0.75139430  0.48513806  0.00917424     0.00400
H1173       H  0.71352803  0.07681799  0.09108149     0.15000
H1174       H  0.80865723  0.07841094  0.00097323     0.14800
O1175       O  0.51651100  0.44362742  0.26655077    -0.57700
C1176       C  0.61938841  0.47694651  0.15432256     0.74900
O1177       O  0.51286435  0.00836441  0.13990637    -0.58900
C1178       C  0.49887724  0.46931805  0.28633804     0.74900
C1179       C  0.59103828  0.49637232  0.28538368     0.77300
Cd1180     Cd  0.54929322  0.47854211  0.20261345     1.37500
O1181       O  0.60427855  0.44975805  0.16946007    -0.57700
O1182       O  0.58831940  0.46550914  0.27053347    -0.56500
C1183       C  0.49698292  0.48234607  0.12128303     0.77200
O1184       O  0.57474406  0.02006003  0.25959605    -0.58900
O1185       O  0.59985651  0.50439784  0.15594110    -0.57400
O1186       O  0.50347642  0.49812061  0.26576094    -0.57300
O1187       O  0.50748814  0.45322802  0.13768764    -0.56500
O1188       O  0.89392738  0.06541682  0.12067891    -0.57700
C1189       C  0.86090082  0.49805752  0.17345833     0.74900
O1190       O  0.85267597  0.02552874  0.00013008    -0.58900
C1191       C  0.89988391  0.08167702  0.07960546     0.74900
C1192       C  0.96421327  0.98752087  0.08850758     0.77300
Cd1193     Cd  0.89031107  0.01169349  0.07634967     1.37500
O1194       O  0.86471759  0.02841785  0.15932745    -0.57700
O1195       O  0.95643190  0.01692660  0.07253770    -0.56500
C1196       C  0.82341879  0.01322981  0.01824546     0.77200
O1197       O  0.93939808  0.46549452  0.08348089    -0.58900
O1198       O  0.87256021  0.47428708  0.14357259    -0.57400
O1199       O  0.90260479  0.06512021  0.03720503    -0.57300
O1200       O  0.82773234  0.99099126  0.05259466    -0.56500
O1201       O  0.59362373  0.75854120  0.16351875    -0.57700
C1202       C  0.49031444  0.72785100  0.28944614     0.74900
O1203       O  0.51180502  0.69822310  0.13867232    -0.58900
C1204       C  0.61062855  0.73084074  0.14946231     0.74900
C1205       C  0.59265937  0.71802759  0.27894497     0.77300
Cd1206     Cd  0.54269149  0.72942179  0.20340148     1.37500
O1207       O  0.50309725  0.75585173  0.27372373    -0.57700
O1208       O  0.58199953  0.74853131  0.26912570    -0.56500
C1209       C  0.49311739  0.72332801  0.12072491     0.77200
O1210       O  0.58025642  0.69325821  0.25204993    -0.58900
O1211       O  0.50067265  0.70099169  0.26455284    -0.57400
O1212       O  0.59384382  0.70310181  0.15534142    -0.57300
O1213       O  0.49943347  0.75298381  0.13878056    -0.56500
O1214       O  0.87374442  0.67319625  0.16793454    -0.57700
C1215       C  0.90108494  0.61827049  0.08075971     0.74900
O1216       O  0.85035024  0.67289781  0.01249525    -0.58900
C1217       C  0.86296853  0.70339055  0.17867212     0.74900
C1218       C  0.96149604  0.71626424  0.08753938     0.77300
Cd1219     Cd  0.89140062  0.68830009  0.08193178     1.37500
O1220       O  0.89810738  0.63470328  0.12329823    -0.57700
O1221       O  0.95724125  0.68620752  0.07166527    -0.56500
C1222       C  0.82197543  0.68478056  0.03616709     0.77200
O1223       O  0.93405325  0.73683372  0.08368024    -0.58900
O1224       O  0.90286326  0.63481806  0.03905239    -0.57400
O1225       O  0.86983282  0.72657926  0.14694070    -0.57300
O1226       O  0.82681137  0.70762454  0.06998789    -0.56500
C1227       C  0.65076642  0.73052831  0.13319813     0.86600
C1228       C  0.66108367  0.76146302  0.10167295    -0.53700
C1229       C  0.69765603  0.76222741  0.08867922     0.09500
C1230       C  0.72089385  0.73201067  0.10995857     0.20500
C1231       C  0.66477471  0.69948067  0.10022372    -0.54400
C1232       C  0.70154181  0.70044480  0.08693626     0.09600
C1233       C  0.67611138  0.73114036  0.18050853    -0.53900
C1234       C  0.71278807  0.73202092  0.16927338     0.10200
H1235       H  0.64048854  0.77906676  0.08579771     0.14700
H1236       H  0.75083300  0.73309494  0.10065912     0.00400
H1237       H  0.64676919  0.67976884  0.08619474     0.15000
H1238       H  0.66579613  0.73070147  0.22005967     0.14800
C1239       C  0.70822981  0.83164972  0.98745559     0.86600
C1240       C  0.70921322  0.81576238  0.04195004    -0.53700
C1241       C  0.70816158  0.78118551  0.04223308     0.09500
C1242       C  0.70415184  0.76496286  0.98848639     0.20500
C1243       C  0.73994758  0.81245765  0.95671611    -0.54400
C1244       C  0.73647825  0.77741074  0.95501373     0.09600
C1245       C  0.67348832  0.81640180  0.96150203    -0.53900
C1246       C  0.67026138  0.78237637  0.96608671     0.10200
H1247       H  0.70670230  0.83040626  0.07769958     0.14700
H1248       H  0.70074599  0.73714872  0.98902766     0.00400
H1249       H  0.76025230  0.82522376  0.93364800     0.15000
H1250       H  0.65281446  0.83099038  0.94014082     0.14800
C1251       C  0.80423904  0.72244287  0.86878525     0.86600
C1252       C  0.77902578  0.72353341  0.82118416    -0.53700
C1253       C  0.74219172  0.72389078  0.83199152     0.09500
C1254       C  0.73388049  0.72326645  0.89124698     0.20500
C1255       C  0.79154845  0.75345764  0.90282575    -0.54400
C1256       C  0.75462574  0.75370193  0.91562014     0.09600
C1257       C  0.79211578  0.69141728  0.89908405    -0.53900
C1258       C  0.75542336  0.69181890  0.91189186     0.10200
H1259       H  0.78957414  0.72316067  0.78174510     0.14700
H1260       H  0.70381102  0.72306639  0.90001709     0.00400
H1261       H  0.81039778  0.77215726  0.91786293     0.15000
H1262       H  0.81179021  0.67276766  0.91442767     0.14800
C1263       C  0.74461585  0.62156502  0.01237508     0.86600
C1264       C  0.71559767  0.64164119  0.04662113    -0.53700
C1265       C  0.72030281  0.67632779  0.04862167     0.09500
C1266       C  0.75125468  0.68818441  0.01231182     0.20500
C1267       C  0.74124020  0.63828320  0.95824178    -0.54400
C1268       C  0.74392177  0.67295353  0.95844111     0.09600
C1269       C  0.78189894  0.63524745  0.03316735    -0.53900
C1270       C  0.78587081  0.66928875  0.02927008     0.10200
H1271       H  0.69502571  0.62963131  0.07021077     0.14700
H1272       H  0.75558815  0.71588903  0.01238548     0.00400
H1273       H  0.74208713  0.62401626  0.92194109     0.15000
H1274       H  0.80385981  0.62011002  0.05069758     0.14800
O1275       O  0.95374067  0.69287529  0.72777561    -0.57700
C1276       C  0.84463410  0.72034422  0.85291705     0.74900
O1277       O  0.94714547  0.74286170  0.86654694    -0.58900
C1278       C  0.96444163  0.72145463  0.71138855     0.74900
C1279       C  0.86306455  0.72473907  0.72288397     0.77300
Cd1280     Cd  0.91321927  0.71697073  0.79877774     1.37500
O1281       O  0.86030882  0.69176290  0.84029132    -0.57700
O1282       O  0.87435257  0.69460826  0.73449738    -0.56500
C1283       C  0.96402217  0.71583723  0.88135416     0.77200
O1284       O  0.87484878  0.75039675  0.74833500    -0.58900
O1285       O  0.86299509  0.74712287  0.84575786    -0.57400
O1286       O  0.95263193  0.74788618  0.73627840    -0.57300
O1287       O  0.95552906  0.68772041  0.85976639    -0.56500
O1288       O  0.54562629  0.80051083  0.88203322    -0.57700
C1289       C  0.59013471  0.72624337  0.82353777     0.74900
O1290       O  0.61909875  0.74452767  0.97870085    -0.58900
C1291       C  0.54488329  0.81644116  0.92516336     0.74900
C1292       C  0.99604815  0.71916311  0.91546888     0.77300
Cd1293     Cd  0.56475446  0.74812180  0.91848945     1.37500
O1294       O  0.57062211  0.75336898  0.82869160    -0.57700
O1295       O  0.00023512  0.74693812  0.93967999    -0.56500
C1296       C  0.63616452  0.76569771  0.95063324     0.77200
O1297       O  0.02401925  0.69904449  0.91141471    -0.58900
O1298       O  0.59289644  0.70615276  0.86140698    -0.57400
O1299       O  0.54859165  0.79949847  0.96649893    -0.57300
O1300       O  0.62109388  0.77490620  0.90908771    -0.56500
O1301       O  0.84358864  0.75632618  0.33777830    -0.57700
C1302       C  0.74050752  0.73131031  0.21202037     0.74900
O1303       O  0.82470823  0.68739324  0.24771656    -0.58900
C1304       C  0.85980078  0.72847280  0.35155134     0.74900
C1305       C  0.74221363  0.72173512  0.38067538     0.77300
Cd1306     Cd  0.79176880  0.72771254  0.29859074     1.37500
O1307       O  0.75452778  0.75831212  0.23072711    -0.57700
O1308       O  0.74913398  0.75139582  0.36460528    -0.56500
C1309       C  0.84036254  0.71114001  0.22318606     0.77200
O1310       O  0.76027998  0.69645045  0.36094687    -0.58900
O1311       O  0.74908916  0.70353691  0.23433614    -0.57400
O1312       O  0.84217202  0.70110779  0.34588026    -0.57300
O1313       O  0.83356289  0.74221751  0.23573307    -0.56500
O1314       O  0.65397058  0.63441605  0.38376228    -0.57700
C1315       C  0.61558154  0.71094640  0.32309289     0.74900
O1316       O  0.58744342  0.69846205  0.47831092    -0.58900
C1317       C  0.65402475  0.62024115  0.42760211     0.74900
C1318       C  0.71053972  0.71504814  0.41353261     0.77300
Cd1319     Cd  0.64049225  0.68904820  0.41749917     1.37500
O1320       O  0.63209425  0.68227039  0.32713321    -0.57700
O1321       O  0.70565779  0.68482820  0.42715022    -0.56500
C1322       C  0.56807529  0.67891714  0.44968326     0.77200
O1323       O  0.68369966  0.73636559  0.41918535    -0.58900
O1324       O  0.61620462  0.73164445  0.36114463    -0.57400
O1325       O  0.65218079  0.63891134  0.46828921    -0.57300
O1326       O  0.58190424  0.66796281  0.40774713    -0.56500
C1327       C  0.55415209  0.72345579  0.63149967     0.86600
C1328       C  0.54294117  0.69206656  0.60001007    -0.53700
C1329       C  0.50634939  0.69161369  0.58738765     0.09500
C1330       C  0.98388478  0.72265289  0.60897614     0.20500
C1331       C  0.54079138  0.75407945  0.59849170    -0.54400
C1332       C  0.00389671  0.75345270  0.58554485     0.09600
C1333       C  0.52878458  0.72421895  0.67908419    -0.53900
C1334       C  0.99202780  0.72362991  0.66828294     0.10200
H1335       H  0.56305403  0.67369291  0.58399573     0.14700
H1336       H  0.95388846  0.72174397  0.60009227     0.00400
H1337       H  0.55923899  0.77308485  0.58410030     0.15000
H1338       H  0.53921825  0.72423481  0.71852862     0.14800
C1339       C  0.99150753  0.61927438  0.48811535     0.86600
C1340       C  0.99169030  0.63699216  0.54221975    -0.53700
C1341       C  0.49504246  0.67145600  0.54141642     0.09500
C1342       C  0.50008929  0.68556009  0.48704168     0.20500
C1343       C  0.96112152  0.63924047  0.45701773    -0.54400
C1344       C  0.96693903  0.67386124  0.45403042     0.09600
C1345       C  0.52719562  0.63150441  0.46173517    -0.53900
C1346       C  0.53270572  0.66531934  0.46522818     0.10200
H1347       H  0.99310530  0.62344604  0.57840977     0.14700
H1348       H  0.50527268  0.71314283  0.48675133     0.00400
H1349       H  0.93973114  0.62695398  0.43483007     0.15000
H1350       H  0.54693188  0.61509187  0.44091773     0.14800
C1351       C  0.89987243  0.72740321  0.36766614     0.86600
C1352       C  0.92554725  0.72637236  0.32044249    -0.53700
C1353       C  0.96221201  0.72672880  0.33193501     0.09500
C1354       C  0.96985883  0.72771616  0.39134452     0.20500
C1355       C  0.91267934  0.69681258  0.40100047    -0.54400
C1356       C  0.94934171  0.69719206  0.41467387     0.09600
C1357       C  0.91090087  0.75875448  0.39904224    -0.53900
C1358       C  0.94741141  0.75891074  0.41226410     0.10200
H1359       H  0.91543036  0.72610577  0.28083122     0.14700
H1360       H  0.49979101  0.72845372  0.40067457     0.00400
H1361       H  0.89393229  0.67799574  0.41522389     0.15000
H1362       H  0.89071603  0.77719535  0.41469644     0.14800
C1363       C  0.95750083  0.83018138  0.51338545     0.86600
C1364       C  0.98875389  0.81155305  0.54489043    -0.53700
C1365       C  0.98533034  0.77654927  0.54660980     0.09500
C1366       C  0.95344710  0.76344426  0.51245294     0.20500
C1367       C  0.95928212  0.81316197  0.45894730    -0.54400
C1368       C  0.95819181  0.77855901  0.45870148     0.09600
C1369       C  0.92237819  0.81559411  0.53827943    -0.53900
C1370       C  0.91923534  0.78148939  0.53384475     0.10200
H1371       H  0.50897603  0.82474507  0.56802030     0.14700
H1372       H  0.95011495  0.73561633  0.51200999     0.00400
H1373       H  0.95695564  0.82705046  0.42312760     0.15000
H1374       H  0.90147561  0.83062327  0.55924877     0.14800
O1375       O  0.70392673  0.69367824  0.77083583    -0.57700
C1376       C  0.59445273  0.72183150  0.64761696     0.74900
O1377       O  0.62308893  0.74794761  0.75474309    -0.58900
C1378       C  0.71450776  0.72213569  0.78897050     0.74900
C1379       C  0.71301738  0.71811656  0.61961741     0.77300
Cd1380     Cd  0.66280161  0.71774062  0.70197747     1.37500
O1381       O  0.61061423  0.69323292  0.65747452    -0.57700
O1382       O  0.70477039  0.68958641  0.63886318    -0.56500
C1383       C  0.61294842  0.72143600  0.77841249     0.77200
O1384       O  0.69592194  0.74483643  0.63644372    -0.58900
O1385       O  0.61212259  0.74871730  0.65805747    -0.57400
O1386       O  0.70230298  0.74873877  0.76607332    -0.57300
O1387       O  0.62568884  0.69192745  0.76447946    -0.56500
O1388       O  0.79514131  0.80480669  0.61952622    -0.57700
C1389       C  0.83998974  0.73069291  0.67843803     0.74900
O1390       O  0.77317270  0.70218884  0.58870443    -0.58900
C1391       C  0.79489292  0.81965287  0.57619417     0.74900
C1392       C  0.88513502  0.76548573  0.54970195     0.77300
Cd1393     Cd  0.81377140  0.75125066  0.58370396     1.37500
O1394       O  0.82259038  0.75892890  0.67379348    -0.57700
O1395       O  0.87144893  0.77469425  0.59257691    -0.56500
C1396       C  0.74510287  0.72221452  0.58618932     0.77200
O1397       O  0.86652920  0.74546395  0.52082814    -0.58900
O1398       O  0.84009961  0.70967972  0.64072251    -0.57400
O1399       O  0.79878827  0.80165669  0.53514049    -0.57300
O1400       O  0.74912827  0.75042114  0.56444428    -0.56500
O1401       O  0.58902070  0.50215941  0.67276118    -0.57700
C1402       C  0.69276031  0.47966351  0.78540293     0.74900
O1403       O  0.61723187  0.92409540  0.75271675    -0.58900
C1404       C  0.57242504  0.97620025  0.65501396     0.74900
C1405       C  0.69407924  0.95891955  0.61961527     0.77300
Cd1406     Cd  0.64237388  0.96853765  0.70162713     1.37500
O1407       O  0.67559498  0.50498654  0.76504538    -0.57700
O1408       O  0.68491908  0.98894594  0.63477631    -0.56500
C1409       C  0.60026437  0.94631578  0.78147613     0.77200
O1410       O  0.67691806  0.93439040  0.63933830    -0.58900
O1411       O  0.68772583  0.95047301  0.76536877    -0.57400
O1412       O  0.59054868  0.94802583  0.65317736    -0.57300
O1413       O  0.60246793  0.97763550  0.77085098    -0.56500
O1414       O  0.82839640  0.90993971  0.65640195    -0.57700
C1415       C  0.79379073  0.85639778  0.57460961     0.74900
O1416       O  0.75188727  0.97304860  0.58057089    -0.58900
C1417       C  0.83035149  0.94036811  0.67233303     0.74900
C1418       C  0.86883583  0.93113637  0.51923377     0.77300
Cd1419     Cd  0.80092574  0.92689272  0.57463736     1.37500
O1420       O  0.79710907  0.87355189  0.61616327    -0.57700
O1421       O  0.86191513  0.95210073  0.55560565    -0.56500
C1422       C  0.72691199  0.95156262  0.58741435     0.77200
O1423       O  0.84123879  0.91688806  0.49892448    -0.58900
O1424       O  0.79236950  0.87224655  0.53215483    -0.57400
O1425       O  0.81649054  0.96361716  0.64446202    -0.57300
O1426       O  0.73448987  0.92133103  0.57365536    -0.56500
C1427       C  0.90965040  0.97122775  0.36391916     0.86600
C1428       C  0.92042803  0.94093671  0.39707621    -0.53700
C1429       C  0.95663762  0.93948205  0.41218283     0.09500
C1430       C  0.97972188  0.96775575  0.38789517     0.20500
C1431       C  0.92326391  0.00283421  0.39428876    -0.54400
C1432       C  0.96013478  0.00095830  0.40716536     0.09600
C1433       C  0.93491149  0.96798678  0.31689428    -0.53900
C1434       C  0.97156022  0.96616779  0.32853818     0.10200
H1435       H  0.89983899  0.92395763  0.41155668     0.14700
H1436       H  0.50964812  0.96595750  0.39755059     0.00400
H1437       H  0.90496109  0.52365387  0.40719539     0.15000
H1438       H  0.92470710  0.96863559  0.27733260     0.14800
C1439       C  0.95450321  0.87112668  0.51163325     0.86600
C1440       C  0.97240254  0.88918763  0.46510479    -0.53700
C1441       C  0.96466272  0.92362213  0.46314741     0.09500
C1442       C  0.94274330  0.93748869  0.51114767     0.20500
C1443       C  0.96984901  0.89025994  0.55947608    -0.54400
C1444       C  0.96445753  0.92491577  0.55863011     0.09600
C1445       C  0.91336974  0.88365177  0.50719280    -0.53900
C1446       C  0.90703528  0.91766804  0.51007288     0.10200
H1447       H  0.98492479  0.87567152  0.43238522     0.14700
H1448       H  0.93778792  0.96544446  0.51093061     0.00400
H1449       H  0.48470477  0.87779191  0.59064123     0.15000
H1450       H  0.89017460  0.86715114  0.50150494     0.14800
C1451       C  0.53220880  0.97819236  0.63997791     0.86600
C1452       C  0.50661283  0.98230835  0.68654831    -0.53700
C1453       C  0.97007776  0.98480908  0.67422684     0.09500
C1454       C  0.96242296  0.98283380  0.61475439     0.20500
C1455       C  0.51812664  0.94677431  0.60989619    -0.54400
C1456       C  0.98155499  0.94918011  0.59621774     0.09600
C1457       C  0.52252143  0.00847906  0.60625654    -0.53900
C1458       C  0.48634980  0.51063890  0.59084204     0.10200
H1459       H  0.51644411  0.98143197  0.72628262     0.14700
H1460       H  0.93262939  0.98508172  0.60448658     0.00400
H1461       H  0.53605946  0.92553824  0.59762440     0.15000
H1462       H  0.54365936  0.52490900  0.59182796     0.14800
C1463       C  0.99169894  0.57829686  0.49051973     0.86600
C1464       C  0.97447757  0.55967069  0.44337792    -0.53700
C1465       C  0.97774337  0.52486255  0.44482546     0.09500
C1466       C  0.49919443  0.51154737  0.49206097     0.20500
C1467       C  0.97328703  0.56160656  0.53789308    -0.54400
C1468       C  0.47871594  0.52683360  0.54013397     0.09600
C1469       C  0.53205537  0.56358091  0.49423305    -0.53900
C1470       C  0.53615620  0.52931916  0.49223375     0.10200
H1471       H  0.96032062  0.57262476  0.41205330     0.14700
H1472       H  0.50248385  0.98345720  0.49275470     0.00400
H1473       H  0.96223190  0.57600469  0.57077474     0.15000
H1474       H  0.55631323  0.57880044  0.49964491     0.14800
O1475       O  0.85370850  0.94447195  0.33374933    -0.57700
C1476       C  0.74870857  0.97035722  0.21648439     0.74900
O1477       O  0.76441636  0.50569425  0.36746700    -0.58900
C1478       C  0.86930116  0.97165051  0.34913854     0.74900
C1479       C  0.84173824  0.99054940  0.22070345     0.77300
Cd1480     Cd  0.79904819  0.97442332  0.30219344     1.37500
O1481       O  0.76282576  0.94317376  0.23577653    -0.57700
O1482       O  0.83830007  0.95959198  0.23365545    -0.56500
C1483       C  0.74735453  0.98031341  0.38472762     0.77200
O1484       O  0.82627842  0.51438196  0.24816691    -0.58900
O1485       O  0.75635223  0.99842773  0.23861654    -0.57400
O1486       O  0.85018119  0.99933349  0.34833905    -0.57300
O1487       O  0.75650459  0.95093658  0.36658620    -0.56500
O1488       O  0.61569360  0.53340913  0.34889036    -0.57700
C1489       C  0.65286153  0.58363297  0.42994343     0.74900
O1490       O  0.60172303  0.52699700  0.50536699    -0.58900
C1491       C  0.61071693  0.00341206  0.33271352     0.74900
C1492       C  0.71457986  0.48637526  0.41763038     0.77300
Cd1493     Cd  0.64162198  0.51383484  0.43066992     1.37500
O1494       O  0.64806936  0.56648072  0.38871084    -0.57700
O1495       O  0.70860967  0.51532244  0.43794508    -0.56500
C1496       C  0.57358740  0.51348783  0.48539782     0.77200
O1497       O  0.68804511  0.96605329  0.41829489    -0.58900
O1498       O  0.65391200  0.56802257  0.47259208    -0.57400
O1499       O  0.62210255  0.97909520  0.36055034    -0.57300
O1500       O  0.57976912  0.49086912  0.45111761    -0.56500
O1501       O  0.83897415  0.50339667  0.83107292    -0.57700
C1502       C  0.94244849  0.98136661  0.71585739     0.74900
O1503       O  0.92642458  0.93385978  0.85698761    -0.58900
C1504       C  0.82251007  0.97710772  0.84703340     0.74900
C1505       C  0.84989765  0.94913414  0.71898174     0.77300
Cd1506     Cd  0.89239774  0.97025745  0.79951835     1.37500
O1507       O  0.92741733  0.50689712  0.73981407    -0.57700
O1508       O  0.85184287  0.98035179  0.73185295    -0.56500
C1509       C  0.94401545  0.95734145  0.87972765     0.77200
O1510       O  0.86715256  0.92667633  0.74585950    -0.58900
O1511       O  0.93526234  0.95196058  0.73204937    -0.57400
O1512       O  0.84080088  0.94903773  0.84690569    -0.57300
O1513       O  0.93552056  0.98796154  0.86833744    -0.56500
O1514       O  0.57829577  0.90678479  0.84187225    -0.57700
C1515       C  0.54360662  0.85322946  0.92613182     0.74900
O1516       O  0.59069765  0.91484490  0.99998031    -0.58900
C1517       C  0.58054372  0.93726578  0.82764715     0.74900
C1518       C  0.97645851  0.94824992  0.91114275     0.77300
Cd1519     Cd  0.55030188  0.92371872  0.92466609     1.37500
O1520       O  0.54783860  0.86921836  0.88438819    -0.57700
O1521       O  0.98458985  0.91731561  0.91764178    -0.56500
C1522       C  0.61789813  0.93006326  0.98078646     0.77200
O1523       O  0.00045763  0.96949169  0.92491520    -0.58900
O1524       O  0.04117247  0.87026492  0.96823104    -0.57400
O1525       O  0.56667524  0.96040518  0.85679603    -0.57300
O1526       O  0.61054937  0.95047534  0.94481641    -0.56500
C1527       C  0.65966194  0.97648473  0.13883189     0.86600
C1528       C  0.68488296  0.97251856  0.18548418    -0.53700
C1529       C  0.72146169  0.96983145  0.17365060     0.09500
C1530       C  0.72966618  0.97143770  0.11417177     0.20500
C1531       C  0.67405110  0.00786325  0.10989241    -0.54400
C1532       C  0.71089386  0.00515977  0.09632085     0.09600
C1533       C  0.66956820  0.94615763  0.10388357    -0.53900
C1534       C  0.70574002  0.94370182  0.08874604     0.10200
H1535       H  0.67465667  0.97281522  0.22511363     0.11500
H1536       H  0.75953232  0.96893738  0.10417882     0.00400
H1537       H  0.65615114  0.52888369  0.09783425     0.15000
H1538       H  0.64850167  0.92969704  0.08869104     0.14800
C1539       C  0.70503618  0.87263921  0.98948542     0.86600
C1540       C  0.72044039  0.89120425  0.94184175    -0.53700
C1541       C  0.71435009  0.92582795  0.94268928     0.09500
C1542       C  0.69173111  0.93882473  0.98984814     0.20500
C1543       C  0.72211086  0.89195858  0.03629829    -0.54400
C1544       C  0.71370025  0.92637817  0.03801623     0.09600
C1545       C  0.66374521  0.88442431  0.99378204    -0.53900
C1546       C  0.65650106  0.91814928  0.99067276     0.10200
H1547       H  0.73603731  0.87840917  0.91104146     0.14700
H1548       H  0.68607330  0.96670190  0.99003850     0.00400
H1549       H  0.73464700  0.87927628  0.06915586     0.15000
H1550       H  0.64099762  0.86751938  0.99969236     0.14800
C1551       C  0.78220616  0.97861151  0.86192182     0.86600
C1552       C  0.77186911  0.50961718  0.89508857    -0.53700
C1553       C  0.73576908  0.51151800  0.91089562     0.09500
C1554       C  0.71228100  0.98288220  0.88696549     0.20500
C1555       C  0.76848442  0.94768113  0.89236779    -0.54400
C1556       C  0.73173156  0.94983833  0.90577027     0.09600
C1557       C  0.75681154  0.98114756  0.81522991    -0.53900
C1558       C  0.72019467  0.98346402  0.82738981     0.10200
H1559       H  0.79269276  0.52669272  0.90933508     0.14700
H1560       H  0.68241137  0.98504007  0.89707204     0.00400
H1561       H  0.78669121  0.92692556  0.90471644     0.15000
H1562       H  0.76687661  0.97966979  0.77555361     0.14800
C1563       C  0.74403287  0.58029890  0.01121489     0.86600
C1564       C  0.72436055  0.56304696  0.96470939    -0.53700
C1565       C  0.72857718  0.52819682  0.96223613     0.09500
C1566       C  0.74907946  0.51328489  0.00993185     0.20500
C1567       C  0.72666833  0.56298717  0.05912283    -0.54400
C1568       C  0.72862916  0.52802559  0.05778907     0.09600
C1569       C  0.78384142  0.56430151  0.00687067    -0.53900
C1570       C  0.78671586  0.52994637  0.00921256     0.10200
H1571       H  0.71307227  0.57696271  0.93206324     0.14700
H1572       H  0.75139320  0.98514326  0.00918602     0.00400
H1573       H  0.71353747  0.57680749  0.09109534     0.15000
H1574       H  0.80866454  0.57840286  0.00097470     0.14800
O1575       O  0.51650367  0.94362935  0.26652490    -0.57700
C1576       C  0.61938497  0.97696753  0.15433284     0.74900
O1577       O  0.51286374  0.50832626  0.13988702    -0.58900
C1578       C  0.49887366  0.96931525  0.28633309     0.74900
C1579       C  0.59102961  0.99638745  0.28538889     0.77300
Cd1580     Cd  0.54928861  0.97856273  0.20261477     1.37500
O1581       O  0.60426900  0.94977804  0.16945375    -0.57700
O1582       O  0.58831396  0.96552525  0.27053235    -0.56500
C1583       C  0.49698616  0.98238859  0.12128268     0.77200
O1584       O  0.57475587  0.52004383  0.25958482    -0.58900
O1585       O  0.59985919  0.00442219  0.15596590    -0.57400
O1586       O  0.50347354  0.99812381  0.26577594    -0.57300
O1587       O  0.50749263  0.95326576  0.13766610    -0.56500
O1588       O  0.89394765  0.56537390  0.12069191    -0.57700
C1589       C  0.86091538  0.99807824  0.17347381     0.74900
O1590       O  0.85268119  0.52552495  0.00013047    -0.58900
C1591       C  0.89989538  0.58164015  0.07962156     0.74900
C1592       C  0.96421008  0.48747032  0.08850291     0.77300
Cd1593     Cd  0.89031276  0.51166019  0.07633965     1.37500
O1594       O  0.86471294  0.52839534  0.15930999    -0.57700
O1595       O  0.95644048  0.51686714  0.07248536    -0.56500
C1596       C  0.82342348  0.51321692  0.01822822     0.77200
O1597       O  0.93941238  0.96553763  0.08344383    -0.58900
O1598       O  0.87258105  0.97431141  0.14358568    -0.57400
O1599       O  0.90261121  0.56508972  0.03721510    -0.57300
O1600       O  0.82773649  0.49096104  0.05255202    -0.56500
loop_ 
_geom_bond_atom_site_label_1 
_geom_bond_atom_site_label_2 
_geom_bond_distance 
_geom_bond_site_symmetry_2 
_ccdc_geom_bond_type 
O1            C4   1.283       .  A
O1           Cd6   2.431       .  S
C2           O11   1.276   1_655  A
C2            O7   1.278   1_655  A
C2          C953   1.496       .  S
O3            C9   1.274   1_455  A
O3           Cd6   2.361       .  S
C4           O12   1.275       .  A
C4           C27   1.509       .  S
C5           O10   1.281       .  A
C5            O8   1.279       .  A
C5          C115   1.436       .  S
Cd6          O13   2.462   1_455  S
Cd6          O12   2.424       .  S
Cd6          O11   2.489       .  S
Cd6           O7   2.505       .  S
Cd6          O10   2.322       .  S
Cd6           O8   2.344       .  S
C9           O13   1.277       .  A
C9          C818   1.460       .  S
O14          C17   1.266       .  A
O14         Cd19   2.398       .  S
C15          O24   1.269       .  A
C15          O20   1.269       .  A
C15         C391   1.443       .  S
O16          C22   1.267       .  A
O16         Cd19   2.411       .  S
C17          O25   1.265       .  A
C17         C109   1.433       .  S
C18          O23   1.267       .  A
C18          O21   1.260       .  A
C18         C809   1.460       .  S
Cd19         O26   2.455       .  S
Cd19         O25   2.356       .  S
Cd19         O24   2.389       .  S
Cd19         O20   2.385       .  S
Cd19         O23   2.489       .  S
Cd19         O21   2.392       .  S
C22          O26   1.260       .  A
C22          C70   1.466       .  S
C27          C28   1.529       .  S
C27          C33   1.529       .  S
C27          C31   1.551       .  S
C28          H35   1.087       .  S
C28          C29   1.364       .  D
C29          C30   1.544       .  S
C29          C41   1.477       .  S
C30          C34   1.559       .  S
C30          C32   1.554       .  S
C30          H36   1.110       .  S
C31          H37   1.085       .  S
C31          C32   1.373       .  D
C32          C65   1.507       .  S
C33          H38   1.087       .  S
C33          C34   1.358       .  D
C34         C102   1.492       .  S
C39          C40   1.549   1_556  S
C39          C45   1.556       .  S
C39          C43   1.563       .  S
C39         C339   1.614       .  S
C40          H47   1.084       .  S
C40          C41   1.362       .  D
C41          C42   1.528   1_554  S
C42          C46   1.506       .  S
C42          C44   1.547       .  S
C42          H48   1.105       .  S
C43          H49   1.084       .  S
C43          C44   1.389       .  D
C44          C56   1.507       .  S
C45          H50   1.085       .  S
C45          C46   1.354       .  D
C46          C96   1.466       .  S
C51          C76   1.515       .  S
C51          C52   1.532       .  S
C51          C57   1.534       .  S
C51          C55   1.552       .  S
C52          H59   1.087       .  S
C52          C53   1.359       .  D
C53         C178   1.499       .  S
C53          C54   1.560       .  S
C54          C58   1.545       .  S
C54          C56   1.557       .  S
C54          H60   1.110       .  S
C55          H61   1.085       .  S
C55          C56   1.374       .  D
C57          H62   1.086       .  S
C57          C58   1.366       .  D
C58          C68   1.487       .  S
C63          C64   1.560       .  S
C63          C69   1.559       .  S
C63          C67   1.557   1_554  S
C63         C363   1.624       .  S
C64          H71   1.084       .  S
C64          C65   1.381       .  D
C65          C66   1.545       .  S
C66          C70   1.506       .  S
C66          C68   1.533   1_554  S
C66          H72   1.106       .  S
C67          H73   1.085       .  S
C67          C68   1.371       .  D
C69          H74   1.082       .  S
C69          C70   1.357       .  D
O75          C78   1.278       .  A
O75         Cd80   2.503       .  S
C76          O85   1.277       .  A
C76          O81   1.282       .  A
O77          C83   1.275       .  A
O77         Cd80   2.373       .  S
C78          O86   1.277       .  A
C78         C134   1.498       .  S
C79          O84   1.280       .  A
C79          O82   1.283       .  A
C79         C189   1.438       .  S
Cd80         O87   2.471       .  S
Cd80         O86   2.503       .  S
Cd80         O85   2.449       .  S
Cd80         O81   2.434       .  S
Cd80         O84   2.302       .  S
Cd80         O82   2.354       .  S
C83          O87   1.277       .  A
C83          C92   1.463       .  S
O88          C91   1.270       .  A
O88         Cd93   2.365       .  S
C89          O98   1.269       .  A
C89          O94   1.267       .  A
C89         C183   1.434       .  S
O90          C96   1.283       .  A
O90         Cd93   2.509       .  S
C91          O99   1.272       .  A
C91         C315   1.447       .  S
C92          O97   1.269       .  A
C92          O95   1.264       .  A
Cd93        O100   2.333       .  S
Cd93         O99   2.413       .  S
Cd93         O98   2.400       .  S
Cd93         O94   2.341       .  S
Cd93        O897   2.467       .  S
Cd93        O895   2.396       .  S
O95        Cd893   2.396       .  S
C96         O100   1.258       .  A
O97        Cd893   2.467       .  S
O101        C104   1.283       .  A
O101       Cd106   2.428       .  S
C102        O111   1.274       .  A
C102        O107   1.279       .  A
O103        C109   1.281       .  A
O103       Cd106   2.342       .  S
C104        O112   1.274       .  A
C104        C151   1.507       .  S
C105        O110   1.274       .  A
C105        O108   1.276       .  A
C105        C118   1.456       .  S
Cd106       O113   2.305       .  S
Cd106       O112   2.417       .  S
Cd106       O111   2.467       .  S
Cd106       O107   2.512       .  S
Cd106       O110   2.353       .  S
Cd106       O108   2.452       .  S
C109        O113   1.277       .  A
O114        C117   1.270       .  A
O114       Cd119   2.346       .  S
C115        O124   1.268       .  A
C115        O120   1.267       .  A
O116        C122   1.282       .  A
O116       Cd119   2.492       .  S
C117        O125   1.274       .  A
C117        C289   1.445       .  S
C118        O123   1.271       .  A
C118        O121   1.262       .  A
Cd119       O126   2.309       .  S
Cd119       O125   2.413       .  S
Cd119       O124   2.385       .  S
Cd119       O120   2.366       .  S
Cd119       O123   2.464       .  S
Cd119       O121   2.369       .  S
C122        O126   1.257       .  A
C122        C146   1.458       .  S
C127        C176   1.515       .  S
C127        C128   1.534       .  S
C127        C133   1.531       .  S
C127        C131   1.552       .  S
C128        H135   1.087       .  S
C128        C129   1.363       .  D
C129        C930   1.544   1_455  S
C129        C141   1.483   1_455  S
C130        C134   1.560       .  S
C130        C132   1.558       .  S
C130        C929   1.544       .  S
C130        H136   1.110       .  S
C131        H137   1.085       .  S
C131        C932   1.376       .  D
C132        C931   1.376       .  D
C132        C165   1.510       .  S
C133        H138   1.087       .  S
C133        C934   1.358   1_455  D
C134        C933   1.358       .  D
C139        C140   1.553       .  S
C139        C143   1.562       .  S
C139        C945   1.550       .  S
C139        C263   1.614       .  S
C140        H147   1.083       .  S
C140        C941   1.366       .  D
C141        C142   1.530   1_655  S
C141        C940   1.366       .  D
C142        C146   1.507       .  S
C142        C944   1.548   1_455  S
C142        H148   1.107       .  S
C143        H149   1.084       .  S
C143        C144   1.388       .  D
C144        C942   1.548       .  S
C144        C156   1.509       .  S
C145        C939   1.550   1_455  S
C145        H150   1.085       .  S
C145        C146   1.353       .  D
C151        C152   1.531       .  S
C151        C157   1.529       .  S
C151        C155   1.551       .  S
C152        H159   1.087       .  S
C152        C153   1.359       .  D
C153        C802   1.496       .  S
C153        C154   1.560       .  S
C154        C158   1.542       .  S
C154        C156   1.558       .  S
C154        H960   1.110       .  S
C155        H161   1.085       .  S
C155        C156   1.372       .  D
C157        H162   1.087       .  S
C157        C158   1.363       .  D
C158        C168   1.476       .  S
H160        C954   1.110       .  S
C163        C164   1.565       .  S
C163        C169   1.550       .  S
C163        C167   1.549       .  S
C163        C239   1.613       .  S
C164        H971   1.084       .  S
C164        C165   1.388       .  D
C165        C166   1.548       .  S
C166        C170   1.508       .  S
C166        C168   1.530       .  S
C166        H172   1.105       .  S
C167        H173   1.084       .  S
C167        C168   1.363       .  D
C169        H174   1.085       .  S
C169        C170   1.353       .  D
C170        C192   1.461       .  S
H171        C964   1.084   1_455  S
O175        C178   1.277       .  A
O175       Cd180   2.499       .  S
C176        O185   1.277       .  A
C176        O181   1.282       .  A
O177        C183   1.279       .  A
O177       Cd180   2.275       .  S
C178        O186   1.278       .  A
C179        O184   1.274       .  A
C179        O182   1.277       .  A
C179        C196   1.458       .  S
Cd180       O187   2.357       .  S
Cd180       O186   2.513       .  S
Cd180       O185   2.459       .  S
Cd180       O181   2.426       .  S
Cd180       O184   2.357       .  S
Cd180       O182   2.455       .  S
C183        O187   1.283       .  A
O188        C191   1.270       .  A
O188       Cd193   2.368       .  S
C189        O198   1.268       .  A
C189        O194   1.268       .  A
O190        C196   1.269       .  A
O190       Cd193   2.463       .  S
C191        O199   1.272       .  A
C191        C215   1.447       .  S
C192        O197   1.282       .  A
C192        O195   1.256       .  A
Cd193       O200   2.390       .  S
Cd193       O199   2.411       .  S
Cd193       O198   2.395       .  S
Cd193       O194   2.365       .  S
Cd193       O197   2.505       .  S
Cd193       O195   2.314       .  S
C196        O200   1.263       .  A
O201        C604   1.280   1_545  A
O201       Cd606   2.431   1_545  S
C202        O207   1.279   1_565  A
C202        O611   1.271       .  A
C202        C758   1.479       .  S
O203        C209   1.281       .  A
O203       Cd206   2.404       .  S
C204        O212   1.272       .  A
C204        O601   1.280       .  A
C204        C251   1.505       .  S
C205        O210   1.274       .  A
C205        O208   1.274       .  A
C205        C222   1.467       .  S
Cd206       O213   2.312       .  S
Cd206       O212   2.406       .  S
Cd206       O211   2.425       .  S
Cd206       O210   2.405       .  S
Cd206       O208   2.468       .  S
Cd206       O601   2.432       .  S
Cd206       O607   2.494       .  S
O207       Cd606   2.494   1_545  S
C209        O213   1.271       .  A
C209        C317   1.443       .  S
O211        C602   1.271       .  A
O214        C217   1.264       .  A
O214       Cd219   2.429       .  S
C215        O224   1.270       .  A
C215        O220   1.267       .  A
O216        C222   1.268       .  A
O216       Cd219   2.503       .  S
C217        O225   1.265       .  A
C217        C305   1.440       .  S
C218        O223   1.269       .  A
C218        O221   1.261       .  A
C218        C246   1.481       .  S
Cd219       O226   2.417       .  S
Cd219       O225   2.373       .  S
Cd219       O224   2.428       .  S
Cd219       O220   2.379       .  S
Cd219       O223   2.457       .  S
Cd219       O221   2.494       .  S
C222        O226   1.259       .  A
C227        C278   1.507       .  S
C227        C228   1.520       .  S
C227        C233   1.520       .  S
C227        C231   1.553       .  S
C228        H235   1.084       .  S
C228        C229   1.366       .  D
C229        C230   1.549       .  S
C229        C241   1.490       .  S
C230        C234   1.562       .  S
C230        C232   1.543       .  S
C230       H1036   1.111       .  S
C231        H637   1.086       .  S
C231        C232   1.374       .  D
C232        C665   1.498       .  S
C233        H238   1.087       .  S
C233        C234   1.359       .  D
C234       C1178   1.478       .  S
H236       C1030   1.111   1_455  S
H237        C631   1.086       .  S
C239        C240   1.555       .  S
C239        C245   1.557       .  S
C239        C243   1.549       .  S
C240        H247   1.083       .  S
C240        C241   1.377       .  D
C241        C242   1.554       .  S
C242        C246   1.527       .  S
C242        C244   1.537       .  S
C242        H248   1.110       .  S
C243       H1049   1.084       .  S
C243        C244   1.373       .  D
C244        C256   1.498       .  S
C245        H250   1.084       .  S
C245        C246   1.352       .  D
H249       C1043   1.084       .  S
C251        C252   1.520       .  S
C251        C257   1.520       .  S
C251        C255   1.549       .  S
C252        H259   1.087       .  S
C252       C1053   1.360   1_455  D
C253        C302   1.476       .  S
C253        C254   1.562       .  S
C253       C1052   1.360       .  D
C254        C256   1.545       .  S
C254       C1458   1.549       .  S
C254        H260   1.111       .  S
C255        H261   1.086       .  S
C255       C1056   1.369   1_455  D
C256       C1055   1.369       .  D
C257        H662   1.084       .  S
C257        C658   1.368   1_455  D
C258       C1454   1.549   1_545  S
C258        C657   1.368   1_655  D
C258        C268   1.488       .  S
H262        C657   1.084       .  S
C263        C264   1.552       .  S
C263        C267   1.555       .  S
C263       C1069   1.557       .  S
C264        H271   1.084       .  S
C264        C265   1.373       .  D
C265       C1066   1.537       .  S
C265        C632   1.498       .  S
C266        C270   1.525   1_655  S
C266        C268   1.549       .  S
C266       C1065   1.537       .  S
C266        H672   1.109   1_645  S
C267        H273   1.083       .  S
C267       C1068   1.379       .  D
C268       C1067   1.379       .  D
C269       C1063   1.557   1_455  S
C269        H274   1.084       .  S
C269        C270   1.352       .  D
C270        C296   1.482       .  S
H272        C666   1.109   1_455  S
O275        C278   1.282       .  A
O275       Cd280   2.419       .  S
C276        O285   1.274       .  A
C276        O281   1.280       .  A
C276        C329   1.483       .  S
O277        C683   1.275   1_545  A
O277       Cd680   2.401   1_545  S
C278        O286   1.273       .  A
C279        O282   1.278       .  A
C279        O684   1.282       .  A
C279        C389   1.441       .  S
Cd280       O287   2.470       .  S
Cd280       O286   2.423       .  S
Cd280       O285   2.437       .  S
Cd280       O281   2.491       .  S
Cd280       O282   2.324       .  S
Cd280       O677   2.401       .  S
Cd280       O684   2.353       .  S
C283        O287   1.275       .  A
C283        O677   1.275       .  A
C283        C692   1.468       .  S
O284        C679   1.282   1_545  A
O284       Cd680   2.353   1_545  S
O288        C691   1.265       .  A
O288       Cd293   2.438       .  S
C289        O298   1.269       .  A
C289        O294   1.267       .  A
O290        C296   1.268       .  A
O290       Cd293   2.447       .  S
C291        O299   1.265       .  A
C291        O688   1.265       .  A
C291        C379   1.443       .  S
C292        O295   1.260   1_565  A
C292        O697   1.267       .  A
C292        C683   1.468       .  S
Cd293       O300   2.494   1_545  S
Cd293       O298   2.430       .  S
Cd293       O294   2.369       .  S
Cd293       O295   2.430       .  S
Cd293       O699   2.374   1_545  S
Cd293       O697   2.500   1_545  S
C296        O300   1.261   1_545  A
O297        C692   1.267       .  A
O297       Cd693   2.500       .  S
O299       Cd693   2.374       .  S
O301        C704   1.281   1_545  A
O301       Cd706   2.431   1_545  S
C302        O311   1.270       .  A
C302        O707   1.279       .  A
O303        C309   1.274       .  A
O303       Cd306   2.395       .  S
C304        O312   1.271       .  A
C304        O701   1.281       .  A
C304        C351   1.505       .  S
C305        O310   1.280       .  A
C305        O308   1.272       .  A
Cd306       O313   2.472       .  S
Cd306       O312   2.405       .  S
Cd306       O311   2.417       .  S
Cd306       O310   2.392       .  S
Cd306       O308   2.314       .  S
Cd306       O701   2.431       .  S
Cd306       O707   2.494       .  S
O307        C702   1.279   1_545  A
O307       Cd706   2.494   1_545  S
C309        O313   1.274       .  A
C309        C318   1.466       .  S
O314        C317   1.264       .  A
O314       Cd319   2.440       .  S
C315        O320   1.268       .  A
C315       O1124   1.271       .  A
O316        C322   1.269       .  A
O316       Cd319   2.457       .  S
C317        O325   1.265       .  A
C318        O323   1.269       .  A
C318        O321   1.258       .  A
Cd319       O326   2.498       .  S
Cd319       O325   2.372       .  S
Cd319       O320   2.374       .  S
Cd319      O1124   2.431       .  S
Cd319      O1123   2.510       .  S
Cd319      O1121   2.402   1_455  S
O321      Cd1119   2.402       .  S
C322        O326   1.261       .  A
C322        C346   1.482       .  S
O323      Cd1119   2.510       .  S
O324       C1115   1.271       .  A
O324      Cd1119   2.431       .  S
C327        C376   1.508       .  S
C327        C328   1.519       .  S
C327        C333   1.520       .  S
C327        C331   1.555       .  S
C328        H335   1.087       .  S
C328        C329   1.357       .  D
C329        C330   1.567       .  S
C330        C334   1.551       .  S
C330        C332   1.549       .  S
C330        H336   1.111       .  S
C331        H737   1.085       .  S
C331        C332   1.377       .  D
C332        C768   1.506       .  S
C333        H338   1.084       .  S
C333        C334   1.364       .  D
C334        C344   1.492       .  S
H337        C731   1.085       .  S
C339        C340   1.551       .  S
C339        C345   1.553       .  S
C339        C343   1.557   1_556  S
C340        H347   1.084       .  S
C340        C341   1.374       .  D
C341        C342   1.539       .  S
C341        C356   1.502       .  S
C342        C346   1.531       .  S
C342        C344   1.555   1_556  S
C342        H348   1.110       .  S
C343        H349   1.084       .  S
C343        C344   1.380       .  D
C345        H350   1.084       .  S
C345        C346   1.349       .  D
C351        C357   1.519       .  S
C351        C355   1.552       .  S
C351        C752   1.518       .  S
C352        C751   1.518   1_545  S
C352        H359   1.084       .  S
C352        C353   1.366       .  D
C353        C754   1.552   1_545  S
C353        C365   1.490       .  S
C354        C358   1.565       .  S
C354        C356   1.545       .  S
C354        C753   1.552       .  S
C354        H360   1.110       .  S
C355        H361   1.086       .  S
C355        C356   1.372       .  D
C357        H362   1.087       .  S
C357        C358   1.360       .  D
C358        C602   1.479       .  S
C363        C364   1.554   1_554  S
C363        C369   1.557       .  S
C363        C367   1.561       .  S
C364        H371   1.085       .  S
C364        C365   1.376       .  D
C365        C366   1.552   1_556  S
C366        C370   1.527       .  S
C366        C368   1.537       .  S
C366        H772   1.108   1_545  S
C367        H373   1.083       .  S
C367        C368   1.376       .  D
C368        C732   1.506       .  S
C369        H374   1.080       .  S
C369        C370   1.355       .  D
C370        C396   1.484       .  S
H372        C766   1.108       .  S
O375        C378   1.279   1_455  A
O375       Cd380   2.484       .  S
C376        O385   1.273       .  A
C376        O381   1.281       .  A
O377        C783   1.275   1_445  A
O377       Cd780   2.389   1_545  S
C378        O386   1.274   1_655  A
C378       C1034   1.478       .  S
C379        O382   1.275       .  A
C379        O784   1.283       .  A
Cd380       O387   2.476       .  S
Cd380       O386   2.424       .  S
Cd380       O385   2.442       .  S
Cd380       O381   2.408       .  S
Cd380       O382   2.307       .  S
Cd380       O777   2.389       .  S
Cd380       O784   2.387       .  S
C383        O387   1.275   1_655  A
C383        O777   1.275   1_655  A
C383       C1592   1.468       .  S
O384        C779   1.283   1_545  A
O384       Cd780   2.387   1_545  S
O388        C391   1.268       .  A
O388       Cd393   2.396       .  S
C389        O398   1.266       .  A
C389        O794   1.265       .  A
O390        C396   1.267       .  A
O390       Cd393   2.453       .  S
C391        O399   1.268       .  A
C392        O395   1.259   1_565  A
C392        O797   1.269       .  A
C392       C1583   1.468       .  S
Cd393       O400   2.500   1_545  S
Cd393       O399   2.399       .  S
Cd393       O394   2.408       .  S
Cd393       O395   2.406       .  S
Cd393       O798   2.391   1_545  S
Cd393       O797   2.511   1_545  S
O394        C789   1.265   1_545  A
C396        O400   1.262   1_545  A
O397        C792   1.269       .  A
O397       Cd793   2.511       .  S
O398       Cd793   2.391       .  S
O401        C404   1.283       .  A
O401       Cd406   2.431       .  S
C402        O411   1.276   1_655  A
C402        O407   1.278   1_655  A
C402       C1353   1.496       .  S
O403        C409   1.274   1_455  A
O403       Cd406   2.361       .  S
C404        O412   1.275       .  A
C404        C427   1.509       .  S
C405        O410   1.281       .  A
C405        O408   1.279       .  A
C405        C515   1.436       .  S
Cd406       O413   2.462   1_455  S
Cd406       O412   2.424       .  S
Cd406       O411   2.489       .  S
Cd406       O407   2.505       .  S
Cd406       O410   2.322       .  S
Cd406       O408   2.345       .  S
C409        O413   1.277       .  A
C409       C1218   1.460       .  S
O414        C417   1.266       .  A
O414       Cd419   2.398       .  S
C415        O424   1.269       .  A
C415        O420   1.269       .  A
C415        C791   1.443       .  S
O416        C422   1.267       .  A
O416       Cd419   2.411       .  S
C417        O425   1.265       .  A
C417        C509   1.433       .  S
C418        O423   1.267       .  A
C418        O421   1.260       .  A
C418       C1209   1.460       .  S
Cd419       O426   2.455       .  S
Cd419       O425   2.356       .  S
Cd419       O424   2.389       .  S
Cd419       O420   2.385       .  S
Cd419       O423   2.489       .  S
Cd419       O421   2.392       .  S
C422        O426   1.260       .  A
C422        C470   1.466       .  S
C427        C428   1.529       .  S
C427        C433   1.529       .  S
C427        C431   1.551       .  S
C428        H435   1.087       .  S
C428        C429   1.364       .  D
C429        C430   1.544       .  S
C429        C441   1.477       .  S
C430        C434   1.559       .  S
C430        C432   1.554       .  S
C430        H436   1.110       .  S
C431        H437   1.085       .  S
C431        C432   1.373       .  D
C432        C465   1.507       .  S
C433        H438   1.087       .  S
C433        C434   1.358       .  D
C434        C502   1.492       .  S
C439        C440   1.549   1_556  S
C439        C445   1.556       .  S
C439        C443   1.563       .  S
C439        C739   1.614       .  S
C440        H447   1.083       .  S
C440        C441   1.362       .  D
C441        C442   1.528   1_554  S
C442        C446   1.506       .  S
C442        C444   1.547       .  S
C442        H448   1.105       .  S
C443        H449   1.084       .  S
C443        C444   1.389       .  D
C444        C456   1.507       .  S
C445        H450   1.085       .  S
C445        C446   1.354       .  D
C446        C496   1.466       .  S
C451        C476   1.515       .  S
C451        C452   1.532       .  S
C451        C457   1.534       .  S
C451        C455   1.552       .  S
C452        H459   1.087       .  S
C452        C453   1.359       .  D
C453        C578   1.499       .  S
C453        C454   1.560       .  S
C454        C458   1.545       .  S
C454        C456   1.557       .  S
C454        H460   1.110       .  S
C455        H461   1.085       .  S
C455        C456   1.374       .  D
C457        H462   1.086       .  S
C457        C458   1.365       .  D
C458        C468   1.487       .  S
C463        C464   1.560       .  S
C463        C469   1.559       .  S
C463        C467   1.557   1_554  S
C463        C763   1.624       .  S
C464        H471   1.084       .  S
C464        C465   1.381       .  D
C465        C466   1.545       .  S
C466        C470   1.506       .  S
C466        C468   1.533   1_554  S
C466        H472   1.106       .  S
C467        H473   1.086       .  S
C467        C468   1.371       .  D
C469        H474   1.082       .  S
C469        C470   1.357       .  D
O475        C478   1.278       .  A
O475       Cd480   2.503       .  S
C476        O485   1.277       .  A
C476        O481   1.282       .  A
O477        C483   1.275       .  A
O477       Cd480   2.373       .  S
C478        O486   1.277       .  A
C478        C534   1.498       .  S
C479        O484   1.280       .  A
C479        O482   1.283       .  A
C479        C589   1.438       .  S
Cd480       O487   2.471       .  S
Cd480       O486   2.503       .  S
Cd480       O485   2.449       .  S
Cd480       O481   2.434       .  S
Cd480       O484   2.302       .  S
Cd480       O482   2.354       .  S
C483        O487   1.277       .  A
C483        C492   1.463       .  S
O488        C491   1.270       .  A
O488       Cd493   2.365       .  S
C489        O498   1.269       .  A
C489        O494   1.267       .  A
C489        C583   1.434       .  S
O490        C496   1.283       .  A
O490       Cd493   2.509       .  S
C491        O499   1.272       .  A
C491        C715   1.447       .  S
C492        O497   1.269       .  A
C492        O495   1.264       .  A
Cd493       O500   2.333       .  S
Cd493       O499   2.413       .  S
Cd493       O498   2.400       .  S
Cd493       O494   2.341       .  S
Cd493      O1297   2.467       .  S
Cd493      O1295   2.396       .  S
O495      Cd1293   2.396       .  S
C496        O500   1.258       .  A
O497      Cd1293   2.467       .  S
O501        C504   1.283       .  A
O501       Cd506   2.428       .  S
C502        O511   1.274       .  A
C502        O507   1.279       .  A
O503        C509   1.281       .  A
O503       Cd506   2.342       .  S
C504        O512   1.274       .  A
C504        C551   1.507       .  S
C505        O510   1.274       .  A
C505        O508   1.276       .  A
C505        C518   1.456       .  S
Cd506       O513   2.305       .  S
Cd506       O512   2.417       .  S
Cd506       O511   2.467       .  S
Cd506       O507   2.512       .  S
Cd506       O510   2.353       .  S
Cd506       O508   2.452       .  S
C509        O513   1.277       .  A
O514        C517   1.270       .  A
O514       Cd519   2.346       .  S
C515        O524   1.268       .  A
C515        O520   1.267       .  A
O516        C522   1.282       .  A
O516       Cd519   2.492       .  S
C517        O525   1.274       .  A
C517        C689   1.445       .  S
C518        O523   1.271       .  A
C518        O521   1.262       .  A
Cd519       O526   2.309       .  S
Cd519       O525   2.413       .  S
Cd519       O524   2.385       .  S
Cd519       O520   2.366       .  S
Cd519       O523   2.464       .  S
Cd519       O521   2.370       .  S
C522        O526   1.257       .  A
C522        C546   1.458       .  S
C527        C576   1.515       .  S
C527        C528   1.534       .  S
C527        C533   1.531       .  S
C527        C531   1.552       .  S
C528        H535   1.087       .  S
C528        C529   1.363       .  D
C529       C1330   1.544   1_455  S
C529        C541   1.483   1_455  S
C530       C1329   1.544       .  S
C530        C534   1.560       .  S
C530        C532   1.558       .  S
C530        H536   1.110       .  S
C531        H537   1.085       .  S
C531       C1332   1.376       .  D
C532       C1331   1.376       .  D
C532        C565   1.510       .  S
C533        H538   1.087       .  S
C533       C1334   1.358   1_455  D
C534       C1333   1.358       .  D
C539        C540   1.553       .  S
C539       C1345   1.550       .  S
C539        C543   1.562       .  S
C539        C663   1.614       .  S
C540        H547   1.083       .  S
C540       C1341   1.366       .  D
C541        C542   1.530   1_655  S
C541       C1340   1.366       .  D
C542        C546   1.507       .  S
C542       C1344   1.548   1_455  S
C542        H548   1.107       .  S
C543        H549   1.084       .  S
C543        C544   1.388       .  D
C544       C1342   1.548       .  S
C544        C556   1.509       .  S
C545       C1339   1.550   1_455  S
C545        H550   1.085       .  S
C545        C546   1.353       .  D
C551        C552   1.531       .  S
C551        C557   1.529       .  S
C551        C555   1.551       .  S
C552        H559   1.087       .  S
C552        C553   1.359       .  D
C553       C1202   1.496       .  S
C553        C554   1.560       .  S
C554        C558   1.542       .  S
C554        C556   1.558       .  S
C554       H1360   1.110       .  S
C555        H561   1.085       .  S
C555        C556   1.372       .  D
C557        H562   1.087       .  S
C557        C558   1.363       .  D
C558        C568   1.476       .  S
H560       C1354   1.110       .  S
C563        C564   1.565       .  S
C563        C569   1.550       .  S
C563        C567   1.549       .  S
C563        C639   1.613       .  S
C564       H1371   1.084       .  S
C564        C565   1.388       .  D
C565        C566   1.548       .  S
C566        C570   1.508       .  S
C566        C568   1.530       .  S
C566        H572   1.105       .  S
C567        H573   1.084       .  S
C567        C568   1.363       .  D
C569        H574   1.085       .  S
C569        C570   1.353       .  D
C570        C592   1.461       .  S
H571       C1364   1.084   1_455  S
O575        C578   1.277       .  A
O575       Cd580   2.499       .  S
C576        O585   1.277       .  A
C576        O581   1.282       .  A
O577        C583   1.279       .  A
O577       Cd580   2.275       .  S
C578        O586   1.278       .  A
C579        O584   1.274       .  A
C579        O582   1.277       .  A
C579        C596   1.458       .  S
Cd580       O587   2.357       .  S
Cd580       O586   2.513       .  S
Cd580       O585   2.459       .  S
Cd580       O581   2.426       .  S
Cd580       O584   2.357       .  S
Cd580       O582   2.455       .  S
C583        O587   1.283       .  A
O588        C591   1.270       .  A
O588       Cd593   2.368       .  S
C589        O598   1.268       .  A
C589        O594   1.268       .  A
O590        C596   1.269       .  A
O590       Cd593   2.463       .  S
C591        O599   1.272       .  A
C591        C615   1.447       .  S
C592        O597   1.282       .  A
C592        O595   1.256       .  A
Cd593       O600   2.390       .  S
Cd593       O599   2.411       .  S
Cd593       O598   2.395       .  S
Cd593       O594   2.365       .  S
Cd593       O597   2.505       .  S
Cd593       O595   2.314       .  S
C596        O600   1.263       .  A
C602        O607   1.279       .  A
O603        C609   1.281       .  A
O603       Cd606   2.404       .  S
C604        O612   1.272       .  A
C604        C651   1.505       .  S
C605        O610   1.274       .  A
C605        O608   1.274       .  A
C605        C622   1.467       .  S
Cd606       O613   2.312       .  S
Cd606       O612   2.406       .  S
Cd606       O611   2.424       .  S
Cd606       O610   2.405       .  S
Cd606       O608   2.468       .  S
C609        O613   1.271       .  A
C609        C717   1.443       .  S
O614        C617   1.264       .  A
O614       Cd619   2.429       .  S
C615        O624   1.270       .  A
C615        O620   1.267       .  A
O616        C622   1.268       .  A
O616       Cd619   2.503       .  S
C617        O625   1.265       .  A
C617        C705   1.440       .  S
C618        O623   1.269       .  A
C618        O621   1.261       .  A
C618        C646   1.482       .  S
Cd619       O626   2.417       .  S
Cd619       O625   2.373       .  S
Cd619       O624   2.428       .  S
Cd619       O620   2.379       .  S
Cd619       O623   2.457       .  S
Cd619       O621   2.494       .  S
C622        O626   1.259       .  A
C627        C678   1.507       .  S
C627        C628   1.520       .  S
C627        C633   1.520       .  S
C627        C631   1.553   1_565  S
C628        H635   1.084       .  S
C628        C629   1.366       .  D
C629        C630   1.549       .  S
C629        C641   1.490       .  S
C630        C634   1.562       .  S
C630        C632   1.543   1_565  S
C630       H1436   1.111       .  S
C631        C632   1.374       .  D
C633        H638   1.087       .  S
C633        C634   1.359       .  D
C634       C1578   1.478       .  S
H636       C1430   1.111   1_455  S
C639        C640   1.555       .  S
C639        C645   1.557       .  S
C639        C643   1.549       .  S
C640        H647   1.083       .  S
C640        C641   1.377       .  D
C641        C642   1.554       .  S
C642        C646   1.527       .  S
C642        C644   1.537       .  S
C642        H648   1.110       .  S
C643       H1449   1.084       .  S
C643        C644   1.373       .  D
C644        C656   1.498       .  S
C645        H650   1.084       .  S
C645        C646   1.352       .  D
H649       C1443   1.084       .  S
C651        C652   1.520       .  S
C651        C657   1.520   1_565  S
C651        C655   1.549       .  S
C652        H659   1.087       .  S
C652       C1453   1.360   1_455  D
C653        C702   1.476       .  S
C653        C654   1.562       .  S
C653       C1452   1.360       .  D
C654       C1058   1.549   1_565  S
C654        C656   1.545       .  S
C654        H660   1.111       .  S
C655        H661   1.086       .  S
C655       C1456   1.369   1_455  D
C656       C1455   1.369       .  D
C658       C1054   1.549       .  S
C658        C668   1.488       .  S
C663        C664   1.552       .  S
C663       C1469   1.557       .  S
C663        C667   1.555       .  S
C664        H671   1.084       .  S
C664        C665   1.373       .  D
C665       C1466   1.537       .  S
C666       C1465   1.537       .  S
C666        C670   1.525   1_655  S
C666        C668   1.549       .  S
C667        H673   1.083       .  S
C667       C1468   1.379       .  D
C668       C1467   1.379       .  D
C669       C1463   1.557   1_455  S
C669        H674   1.084       .  S
C669        C670   1.352       .  D
C670        C696   1.482       .  S
O675        C678   1.282       .  A
O675       Cd680   2.419       .  S
C676        O685   1.274       .  A
C676        O681   1.280       .  A
C676        C729   1.483       .  S
C678        O686   1.273       .  A
C679        O682   1.278       .  A
C679        C789   1.441       .  S
Cd680       O687   2.470       .  S
Cd680       O686   2.423       .  S
Cd680       O685   2.437       .  S
Cd680       O681   2.491       .  S
Cd680       O682   2.324       .  S
C683        O687   1.275       .  A
O688       Cd693   2.438       .  S
C689        O698   1.269       .  A
C689        O694   1.267       .  A
O690        C696   1.268       .  A
O690       Cd693   2.447       .  S
C691        O699   1.265   1_545  A
C691        C779   1.443   1_545  S
C692        O695   1.260       .  A
Cd693       O700   2.493       .  S
Cd693       O698   2.430       .  S
Cd693       O694   2.369       .  S
Cd693       O695   2.430       .  S
C696        O700   1.261       .  A
C702        O711   1.270       .  A
O703        C709   1.274       .  A
O703       Cd706   2.395       .  S
C704        O712   1.271       .  A
C704        C751   1.505       .  S
C705        O710   1.280       .  A
C705        O708   1.272       .  A
Cd706       O713   2.472       .  S
Cd706       O712   2.405       .  S
Cd706       O711   2.417       .  S
Cd706       O710   2.391       .  S
Cd706       O708   2.314       .  S
C709        O713   1.274       .  A
C709        C718   1.466       .  S
O714        C717   1.264       .  A
O714       Cd719   2.440       .  S
C715       O1524   1.271       .  A
C715        O720   1.268       .  A
O716        C722   1.269       .  A
O716       Cd719   2.457       .  S
C717        O725   1.265       .  A
C718        O723   1.269       .  A
C718        O721   1.258       .  A
Cd719       O726   2.498       .  S
Cd719       O725   2.372       .  S
Cd719      O1524   2.431       .  S
Cd719       O720   2.374       .  S
Cd719      O1523   2.510       .  S
Cd719      O1521   2.402   1_455  S
O721      Cd1519   2.402       .  S
C722        O726   1.261       .  A
C722        C746   1.482       .  S
O723      Cd1519   2.510       .  S
O724       C1515   1.271       .  A
O724      Cd1519   2.431       .  S
C727        C776   1.508       .  S
C727        C728   1.519       .  S
C727        C733   1.520       .  S
C727        C731   1.555   1_565  S
C728        H735   1.087       .  S
C728        C729   1.357       .  D
C729        C730   1.567       .  S
C730        C734   1.551       .  S
C730        C732   1.549   1_565  S
C730        H736   1.110       .  S
C731        C732   1.377       .  D
C733        H738   1.084       .  S
C733        C734   1.364       .  D
C734        C744   1.492       .  S
C739        C740   1.551       .  S
C739        C745   1.553       .  S
C739        C743   1.557   1_556  S
C740        H747   1.084       .  S
C740        C741   1.374       .  D
C741        C742   1.539       .  S
C741        C756   1.502       .  S
C742        C746   1.531       .  S
C742        C744   1.555   1_556  S
C742        H748   1.110       .  S
C743        H749   1.084       .  S
C743        C744   1.380       .  D
C745        H750   1.084       .  S
C745        C746   1.349       .  D
C751        C757   1.519       .  S
C751        C755   1.552       .  S
C752        H759   1.084       .  S
C752        C753   1.366       .  D
C753        C765   1.490       .  S
C754        C758   1.565       .  S
C754        C756   1.545       .  S
C754        H760   1.111       .  S
C755        H761   1.086       .  S
C755        C756   1.372       .  D
C757        H762   1.087       .  S
C757        C758   1.360       .  D
C763        C764   1.554   1_554  S
C763        C769   1.557       .  S
C763        C767   1.561       .  S
C764        H771   1.086       .  S
C764        C765   1.376       .  D
C765        C766   1.552   1_556  S
C766        C770   1.527       .  S
C766        C768   1.537       .  S
C767        H773   1.083       .  S
C767        C768   1.376       .  D
C769        H774   1.080       .  S
C769        C770   1.355       .  D
C770        C796   1.484       .  S
O775        C778   1.279   1_455  A
O775       Cd780   2.484       .  S
C776        O785   1.273   1_565  A
C776        O781   1.281       .  A
C778        O786   1.274   1_655  A
C778       C1434   1.478       .  S
C779        O782   1.275       .  A
Cd780       O787   2.476       .  S
Cd780       O786   2.424       .  S
Cd780       O785   2.442   1_565  S
Cd780       O781   2.408       .  S
Cd780       O782   2.307       .  S
C783        O787   1.275   1_655  A
C783       C1192   1.468       .  S
O788        C791   1.268       .  A
O788       Cd793   2.396       .  S
C789        O798   1.266       .  A
O790        C796   1.267       .  A
O790       Cd793   2.453       .  S
C791        O799   1.268       .  A
C792        O795   1.259       .  A
C792       C1183   1.468       .  S
Cd793       O800   2.500       .  S
Cd793       O799   2.399       .  S
Cd793       O794   2.408       .  S
Cd793       O795   2.406       .  S
C796        O800   1.262       .  A
O801        C804   1.283       .  A
O801       Cd806   2.431       .  S
C802        O811   1.276       .  A
C802        O807   1.278       .  A
O803        C809   1.274       .  A
O803       Cd806   2.361       .  S
C804        O812   1.275       .  A
C804        C827   1.509       .  S
C805        O810   1.281       .  A
C805        O808   1.279       .  A
C805        C915   1.436       .  S
Cd806       O813   2.462       .  S
Cd806       O812   2.424       .  S
Cd806       O811   2.489       .  S
Cd806       O807   2.505       .  S
Cd806       O810   2.322       .  S
Cd806       O808   2.344       .  S
C809        O813   1.277       .  A
O814        C817   1.266       .  A
O814       Cd819   2.398       .  S
C815        O824   1.269       .  A
C815        O820   1.269       .  A
C815       C1191   1.443       .  S
O816        C822   1.267       .  A
O816       Cd819   2.411       .  S
C817        O825   1.265       .  A
C817        C909   1.433       .  S
C818        O823   1.267       .  A
C818        O821   1.260       .  A
Cd819       O826   2.455       .  S
Cd819       O825   2.356       .  S
Cd819       O824   2.389       .  S
Cd819       O820   2.385       .  S
Cd819       O823   2.489       .  S
Cd819       O821   2.392       .  S
C822        O826   1.260       .  A
C822        C870   1.466       .  S
C827        C828   1.529       .  S
C827        C833   1.529       .  S
C827        C831   1.551       .  S
C828        H835   1.087       .  S
C828        C829   1.364       .  D
C829        C830   1.544       .  S
C829        C841   1.477       .  S
C830        C834   1.559       .  S
C830        C832   1.554       .  S
C830        H836   1.110       .  S
C831        H837   1.085       .  S
C831        C832   1.373       .  D
C832        C865   1.507       .  S
C833        H838   1.087       .  S
C833        C834   1.358       .  D
C834        C902   1.492       .  S
C839        C840   1.549   1_556  S
C839        C845   1.556       .  S
C839        C843   1.563       .  S
C839       C1139   1.614       .  S
C840        H847   1.084       .  S
C840        C841   1.362       .  D
C841        C842   1.528   1_554  S
C842        C846   1.506       .  S
C842        C844   1.547       .  S
C842        H848   1.105       .  S
C843        H849   1.084       .  S
C843        C844   1.389       .  D
C844        C856   1.507       .  S
C845        H850   1.085       .  S
C845        C846   1.354       .  D
C846        C896   1.466       .  S
C851        C876   1.515       .  S
C851        C852   1.532       .  S
C851        C857   1.534       .  S
C851        C855   1.552       .  S
C852        H859   1.087       .  S
C852        C853   1.359       .  D
C853        C978   1.499       .  S
C853        C854   1.560       .  S
C854        C858   1.545       .  S
C854        C856   1.557       .  S
C854        H860   1.110       .  S
C855        H861   1.085       .  S
C855        C856   1.374       .  D
C857        H862   1.086       .  S
C857        C858   1.366       .  D
C858        C868   1.487       .  S
C863        C864   1.560       .  S
C863        C869   1.559       .  S
C863        C867   1.557   1_554  S
C863       C1163   1.625       .  S
C864        H871   1.084       .  S
C864        C865   1.381       .  D
C865        C866   1.545       .  S
C866        C870   1.506       .  S
C866        C868   1.533   1_554  S
C866        H872   1.106       .  S
C867        H873   1.085       .  S
C867        C868   1.371       .  D
C869        H874   1.082       .  S
C869        C870   1.357       .  D
O875        C878   1.278       .  A
O875       Cd880   2.503       .  S
C876        O885   1.277       .  A
C876        O881   1.282       .  A
O877        C883   1.275       .  A
O877       Cd880   2.373       .  S
C878        O886   1.277       .  A
C878        C934   1.498       .  S
C879        O884   1.280       .  A
C879        O882   1.283       .  A
C879        C989   1.438       .  S
Cd880       O887   2.471       .  S
Cd880       O886   2.503       .  S
Cd880       O885   2.449       .  S
Cd880       O881   2.434       .  S
Cd880       O884   2.302       .  S
Cd880       O882   2.354       .  S
C883        O887   1.277       .  A
C883        C892   1.463       .  S
O888        C891   1.270       .  A
O888       Cd893   2.365       .  S
C889        O898   1.269       .  A
C889        O894   1.267       .  A
C889        C983   1.434       .  S
O890        C896   1.283       .  A
O890       Cd893   2.509       .  S
C891        O899   1.272       .  A
C891       C1115   1.447       .  S
C892        O897   1.269   1_655  A
C892        O895   1.264   1_655  A
Cd893       O900   2.333       .  S
Cd893       O899   2.413       .  S
Cd893       O898   2.400       .  S
Cd893       O894   2.341       .  S
C896        O900   1.258       .  A
O901        C904   1.283       .  A
O901       Cd906   2.428       .  S
C902        O911   1.274       .  A
C902        O907   1.279       .  A
O903        C909   1.281       .  A
O903       Cd906   2.342       .  S
C904        O912   1.274       .  A
C904        C951   1.507       .  S
C905        O910   1.274       .  A
C905        O908   1.276       .  A
C905        C918   1.456       .  S
Cd906       O913   2.305       .  S
Cd906       O912   2.417       .  S
Cd906       O911   2.467       .  S
Cd906       O907   2.512       .  S
Cd906       O910   2.353       .  S
Cd906       O908   2.452       .  S
C909        O913   1.277       .  A
O914        C917   1.270       .  A
O914       Cd919   2.346       .  S
C915        O924   1.268       .  A
C915        O920   1.267       .  A
O916        C922   1.282       .  A
O916       Cd919   2.492       .  S
C917        O925   1.274       .  A
C917       C1089   1.445       .  S
C918        O923   1.271       .  A
C918        O921   1.262       .  A
Cd919       O926   2.309       .  S
Cd919       O925   2.413       .  S
Cd919       O924   2.385       .  S
Cd919       O920   2.366       .  S
Cd919       O923   2.464       .  S
Cd919       O921   2.369       .  S
C922        O926   1.257       .  A
C922        C946   1.458       .  S
C927        C976   1.515       .  S
C927        C928   1.534       .  S
C927        C933   1.531       .  S
C927        C931   1.552       .  S
C928        H935   1.087       .  S
C928        C929   1.363       .  D
C929        C941   1.483       .  S
C930        C934   1.560       .  S
C930        C932   1.558   1_655  S
C930        H936   1.110       .  S
C931        H937   1.085       .  S
C932        C965   1.510   1_455  S
C933        H938   1.087       .  S
C939        C940   1.553       .  S
C939        C943   1.562       .  S
C939       C1063   1.614       .  S
C940        H947   1.083       .  S
C941        C942   1.530       .  S
C942        C946   1.507       .  S
C942        H948   1.107       .  S
C943        H949   1.084       .  S
C943        C944   1.388       .  D
C944        C956   1.509       .  S
C945        H950   1.085       .  S
C945        C946   1.353       .  D
C951        C952   1.531       .  S
C951        C957   1.529       .  S
C951        C955   1.551       .  S
C952        H959   1.087       .  S
C952        C953   1.359       .  D
C953        C954   1.560       .  S
C954        C958   1.542       .  S
C954        C956   1.558       .  S
C955        H961   1.085       .  S
C955        C956   1.372       .  D
C957        H962   1.087       .  S
C957        C958   1.363       .  D
C958        C968   1.476       .  S
C963        C964   1.565       .  S
C963        C969   1.550       .  S
C963        C967   1.549       .  S
C963       C1039   1.613       .  S
C964        C965   1.388       .  D
C965        C966   1.548       .  S
C966        C970   1.508       .  S
C966        C968   1.530       .  S
C966        H972   1.105       .  S
C967        H973   1.084       .  S
C967        C968   1.363       .  D
C969        H974   1.085       .  S
C969        C970   1.353       .  D
C970        C992   1.461       .  S
O975        C978   1.277       .  A
O975       Cd980   2.499       .  S
C976        O985   1.277       .  A
C976        O981   1.282       .  A
O977        C983   1.279       .  A
O977       Cd980   2.275       .  S
C978        O986   1.278       .  A
C979        O984   1.274       .  A
C979        O982   1.277       .  A
C979        C996   1.458       .  S
Cd980       O987   2.357       .  S
Cd980       O986   2.513       .  S
Cd980       O985   2.459       .  S
Cd980       O981   2.426       .  S
Cd980       O984   2.357       .  S
Cd980       O982   2.455       .  S
C983        O987   1.283       .  A
O988        C991   1.270       .  A
O988       Cd993   2.368       .  S
C989        O998   1.268       .  A
C989        O994   1.268       .  A
O990        C996   1.269       .  A
O990       Cd993   2.463       .  S
C991        O999   1.272       .  A
C991       C1015   1.447       .  S
C992        O997   1.282       .  A
C992        O995   1.256       .  A
Cd993      O1000   2.390       .  S
Cd993       O999   2.411       .  S
Cd993       O998   2.395       .  S
Cd993       O994   2.365       .  S
Cd993       O997   2.505       .  S
Cd993       O995   2.314       .  S
C996       O1000   1.263       .  A
O1001      C1404   1.280   1_545  A
O1001     Cd1406   2.431   1_545  S
C1002      O1411   1.271       .  A
C1002      O1007   1.279   1_565  A
C1002      C1558   1.479       .  S
O1003      C1009   1.281       .  A
O1003     Cd1006   2.404       .  S
C1004      O1401   1.280       .  A
C1004      O1012   1.272       .  A
C1004      C1051   1.505       .  S
C1005      O1010   1.274       .  A
C1005      O1008   1.274       .  A
C1005      C1022   1.467       .  S
Cd1006     O1401   2.432       .  S
Cd1006     O1013   2.312       .  S
Cd1006     O1012   2.406       .  S
Cd1006     O1011   2.425       .  S
Cd1006     O1407   2.494       .  S
Cd1006     O1010   2.405       .  S
Cd1006     O1008   2.468       .  S
O1007     Cd1406   2.494   1_545  S
C1009      O1013   1.271       .  A
C1009      C1117   1.443       .  S
O1011      C1402   1.271       .  A
O1014      C1017   1.264       .  A
O1014     Cd1019   2.429       .  S
C1015      O1024   1.270       .  A
C1015      O1020   1.267       .  A
O1016      C1022   1.268       .  A
O1016     Cd1019   2.503       .  S
C1017      O1025   1.265       .  A
C1017      C1105   1.440       .  S
C1018      O1023   1.269       .  A
C1018      O1021   1.261       .  A
C1018      C1046   1.481       .  S
Cd1019     O1026   2.417       .  S
Cd1019     O1025   2.373       .  S
Cd1019     O1024   2.428       .  S
Cd1019     O1020   2.379       .  S
Cd1019     O1023   2.457       .  S
Cd1019     O1021   2.494       .  S
C1022      O1026   1.259       .  A
C1027      C1078   1.507       .  S
C1027      C1028   1.520       .  S
C1027      C1033   1.520       .  S
C1027      C1031   1.553       .  S
C1028      H1035   1.084       .  S
C1028      C1029   1.366       .  D
C1029      C1030   1.549       .  S
C1029      C1041   1.490       .  S
C1030      C1034   1.562       .  S
C1030      C1032   1.543       .  S
C1031      H1437   1.086       .  S
C1031      C1032   1.374       .  D
C1032      C1465   1.498       .  S
C1033      H1038   1.087       .  S
C1033      C1034   1.359       .  D
H1037      C1431   1.086       .  S
C1039      C1040   1.555       .  S
C1039      C1045   1.557       .  S
C1039      C1043   1.549       .  S
C1040      H1047   1.083       .  S
C1040      C1041   1.377       .  D
C1041      C1042   1.554       .  S
C1042      C1046   1.527       .  S
C1042      C1044   1.537       .  S
C1042      H1048   1.110       .  S
C1043      C1044   1.373       .  D
C1044      C1056   1.498       .  S
C1045      H1050   1.084       .  S
C1045      C1046   1.352       .  D
C1051      C1052   1.520       .  S
C1051      C1057   1.520       .  S
C1051      C1055   1.549       .  S
C1052      H1059   1.087       .  S
C1053      C1102   1.476       .  S
C1053      C1054   1.562       .  S
C1054      C1056   1.545       .  S
C1054      H1060   1.111       .  S
C1055      H1061   1.086       .  S
C1057      H1462   1.084       .  S
C1057      C1458   1.368       .  D
C1058      C1457   1.368       .  D
C1058      C1068   1.488       .  S
H1062      C1457   1.084       .  S
C1063      C1064   1.552       .  S
C1063      C1067   1.555       .  S
C1064      H1071   1.084       .  S
C1064      C1065   1.373       .  D
C1065      C1432   1.498       .  S
C1066      C1070   1.525       .  S
C1066      C1068   1.549       .  S
C1066      H1472   1.109   1_545  S
C1067      H1073   1.083       .  S
C1069      H1074   1.084       .  S
C1069      C1070   1.352       .  D
C1070      C1096   1.482       .  S
H1072      C1466   1.109       .  S
O1075      C1078   1.282       .  A
O1075     Cd1080   2.419       .  S
C1076      O1085   1.274       .  A
C1076      O1081   1.280       .  A
C1076      C1129   1.483       .  S
O1077      C1483   1.275   1_545  A
O1077     Cd1480   2.401   1_545  S
C1078      O1086   1.273       .  A
C1079      O1484   1.282       .  A
C1079      O1082   1.278       .  A
C1079      C1189   1.441       .  S
Cd1080     O1477   2.401       .  S
Cd1080     O1087   2.470       .  S
Cd1080     O1086   2.423       .  S
Cd1080     O1085   2.437       .  S
Cd1080     O1081   2.491       .  S
Cd1080     O1484   2.353       .  S
Cd1080     O1082   2.324       .  S
C1083      O1477   1.275       .  A
C1083      O1087   1.275       .  A
C1083      C1492   1.468       .  S
O1084      C1479   1.282   1_545  A
O1084     Cd1480   2.353   1_545  S
O1088      C1491   1.265       .  A
O1088     Cd1093   2.438       .  S
C1089      O1098   1.269       .  A
C1089      O1094   1.267       .  A
O1090      C1096   1.268       .  A
O1090     Cd1093   2.447       .  S
C1091      O1488   1.265       .  A
C1091      O1099   1.265       .  A
C1091      C1179   1.443       .  S
C1092      O1497   1.267       .  A
C1092      O1095   1.260   1_565  A
C1092      C1483   1.468       .  S
Cd1093     O1100   2.494   1_545  S
Cd1093     O1499   2.374   1_545  S
Cd1093     O1098   2.430       .  S
Cd1093     O1094   2.369       .  S
Cd1093     O1497   2.500   1_545  S
Cd1093     O1095   2.430       .  S
C1096      O1100   1.261   1_545  A
O1097      C1492   1.267       .  A
O1097     Cd1493   2.500       .  S
O1099     Cd1493   2.374       .  S
O1101      C1504   1.281   1_545  A
O1101     Cd1506   2.431   1_545  S
C1102      O1111   1.270       .  A
C1102      O1507   1.279       .  A
O1103      C1109   1.274       .  A
O1103     Cd1106   2.395       .  S
C1104      O1501   1.281       .  A
C1104      O1112   1.271       .  A
C1104      C1151   1.505       .  S
C1105      O1110   1.280       .  A
C1105      O1108   1.272       .  A
Cd1106     O1501   2.431       .  S
Cd1106     O1113   2.472       .  S
Cd1106     O1112   2.405       .  S
Cd1106     O1111   2.417       .  S
Cd1106     O1507   2.494       .  S
Cd1106     O1110   2.392       .  S
Cd1106     O1108   2.314       .  S
O1107      C1502   1.279   1_545  A
O1107     Cd1506   2.494   1_545  S
C1109      O1113   1.274       .  A
C1109      C1118   1.466       .  S
O1114      C1117   1.264       .  A
O1114     Cd1119   2.440       .  S
C1115      O1120   1.268       .  A
O1116      C1122   1.269       .  A
O1116     Cd1119   2.457       .  S
C1117      O1125   1.265       .  A
C1118      O1123   1.269   1_655  A
C1118      O1121   1.258       .  A
Cd1119     O1126   2.498       .  S
Cd1119     O1125   2.372       .  S
Cd1119     O1120   2.374       .  S
C1122      O1126   1.261       .  A
C1122      C1146   1.482       .  S
C1127      C1176   1.508       .  S
C1127      C1128   1.519       .  S
C1127      C1133   1.520       .  S
C1127      C1131   1.555       .  S
C1128      H1135   1.087       .  S
C1128      C1129   1.357       .  D
C1129      C1130   1.567       .  S
C1130      C1134   1.551       .  S
C1130      C1132   1.549       .  S
C1130      H1136   1.111       .  S
C1131      H1537   1.085       .  S
C1131      C1132   1.377       .  D
C1132      C1568   1.506       .  S
C1133      H1138   1.084       .  S
C1133      C1134   1.364       .  D
C1134      C1144   1.492       .  S
H1137      C1531   1.085       .  S
C1139      C1140   1.551       .  S
C1139      C1145   1.553       .  S
C1139      C1143   1.557   1_556  S
C1140      H1147   1.084       .  S
C1140      C1141   1.374       .  D
C1141      C1142   1.539       .  S
C1141      C1156   1.502       .  S
C1142      C1146   1.531       .  S
C1142      C1144   1.555   1_556  S
C1142      H1148   1.110       .  S
C1143      H1149   1.084       .  S
C1143      C1144   1.380       .  D
C1145      H1150   1.084       .  S
C1145      C1146   1.349       .  D
C1151      C1552   1.518       .  S
C1151      C1157   1.519       .  S
C1151      C1155   1.552       .  S
C1152      C1551   1.518   1_545  S
C1152      H1159   1.084       .  S
C1152      C1153   1.366       .  D
C1153      C1554   1.552   1_545  S
C1153      C1165   1.490       .  S
C1154      C1553   1.552       .  S
C1154      C1158   1.565       .  S
C1154      C1156   1.545       .  S
C1154      H1160   1.110       .  S
C1155      H1161   1.086       .  S
C1155      C1156   1.372       .  D
C1157      H1162   1.087       .  S
C1157      C1158   1.360       .  D
C1158      C1402   1.479       .  S
C1163      C1164   1.554   1_554  S
C1163      C1169   1.557       .  S
C1163      C1167   1.561       .  S
C1164      H1171   1.085       .  S
C1164      C1165   1.376       .  D
C1165      C1166   1.552   1_556  S
C1166      C1170   1.527       .  S
C1166      C1168   1.537       .  S
C1166      H1572   1.108   1_545  S
C1167      H1173   1.083       .  S
C1167      C1168   1.376       .  D
C1168      C1532   1.506       .  S
C1169      H1174   1.080       .  S
C1169      C1170   1.355       .  D
C1170      C1196   1.484       .  S
H1172      C1566   1.108       .  S
O1175      C1178   1.279       .  A
O1175     Cd1180   2.484       .  S
C1176      O1185   1.273       .  A
C1176      O1181   1.281       .  A
O1177      C1583   1.275   1_545  A
O1177     Cd1580   2.389   1_545  S
C1178      O1186   1.274       .  A
C1179      O1584   1.283       .  A
C1179      O1182   1.275       .  A
Cd1180     O1577   2.389       .  S
Cd1180     O1187   2.476       .  S
Cd1180     O1186   2.424       .  S
Cd1180     O1185   2.442       .  S
Cd1180     O1181   2.408       .  S
Cd1180     O1584   2.387       .  S
Cd1180     O1182   2.307       .  S
C1183      O1577   1.275       .  A
C1183      O1187   1.275       .  A
O1184      C1579   1.283   1_545  A
O1184     Cd1580   2.387   1_545  S
O1188      C1191   1.268       .  A
O1188     Cd1193   2.396       .  S
C1189      O1198   1.266       .  A
C1189      O1594   1.265       .  A
O1190      C1196   1.267       .  A
O1190     Cd1193   2.453       .  S
C1191      O1199   1.268       .  A
C1192      O1597   1.269       .  A
C1192      O1195   1.259   1_565  A
Cd1193     O1200   2.500   1_545  S
Cd1193     O1199   2.399       .  S
Cd1193     O1598   2.391   1_545  S
Cd1193     O1194   2.408       .  S
Cd1193     O1597   2.511   1_545  S
Cd1193     O1195   2.406       .  S
O1194      C1589   1.265   1_545  A
C1196      O1200   1.262   1_545  A
O1197      C1592   1.269       .  A
O1197     Cd1593   2.511       .  S
O1198     Cd1593   2.391       .  S
O1201      C1204   1.283       .  A
O1201     Cd1206   2.431       .  S
C1202      O1211   1.276       .  A
C1202      O1207   1.278       .  A
O1203      C1209   1.274       .  A
O1203     Cd1206   2.361       .  S
C1204      O1212   1.275       .  A
C1204      C1227   1.509       .  S
C1205      O1210   1.281       .  A
C1205      O1208   1.279       .  A
C1205      C1315   1.436       .  S
Cd1206     O1213   2.462       .  S
Cd1206     O1212   2.424       .  S
Cd1206     O1211   2.489       .  S
Cd1206     O1207   2.505       .  S
Cd1206     O1210   2.322       .  S
Cd1206     O1208   2.345       .  S
C1209      O1213   1.277       .  A
O1214      C1217   1.266       .  A
O1214     Cd1219   2.398       .  S
C1215      O1224   1.269       .  A
C1215      O1220   1.269       .  A
C1215      C1591   1.443       .  S
O1216      C1222   1.267       .  A
O1216     Cd1219   2.411       .  S
C1217      O1225   1.265       .  A
C1217      C1309   1.433       .  S
C1218      O1223   1.267       .  A
C1218      O1221   1.260       .  A
Cd1219     O1226   2.455       .  S
Cd1219     O1225   2.356       .  S
Cd1219     O1224   2.389       .  S
Cd1219     O1220   2.385       .  S
Cd1219     O1223   2.489       .  S
Cd1219     O1221   2.392       .  S
C1222      O1226   1.260       .  A
C1222      C1270   1.466       .  S
C1227      C1228   1.529       .  S
C1227      C1233   1.529       .  S
C1227      C1231   1.551       .  S
C1228      H1235   1.087       .  S
C1228      C1229   1.364       .  D
C1229      C1230   1.544       .  S
C1229      C1241   1.477       .  S
C1230      C1234   1.559       .  S
C1230      C1232   1.554       .  S
C1230      H1236   1.110       .  S
C1231      H1237   1.085       .  S
C1231      C1232   1.373       .  D
C1232      C1265   1.507       .  S
C1233      H1238   1.087       .  S
C1233      C1234   1.358       .  D
C1234      C1302   1.492       .  S
C1239      C1240   1.549   1_556  S
C1239      C1245   1.556       .  S
C1239      C1243   1.563       .  S
C1239      C1539   1.614       .  S
C1240      H1247   1.083       .  S
C1240      C1241   1.362       .  D
C1241      C1242   1.528   1_554  S
C1242      C1246   1.506       .  S
C1242      C1244   1.547       .  S
C1242      H1248   1.105       .  S
C1243      H1249   1.084       .  S
C1243      C1244   1.389       .  D
C1244      C1256   1.507       .  S
C1245      H1250   1.085       .  S
C1245      C1246   1.354       .  D
C1246      C1296   1.466       .  S
C1251      C1276   1.515       .  S
C1251      C1252   1.532       .  S
C1251      C1257   1.534       .  S
C1251      C1255   1.552       .  S
C1252      H1259   1.087       .  S
C1252      C1253   1.359       .  D
C1253      C1378   1.499       .  S
C1253      C1254   1.560       .  S
C1254      C1258   1.545       .  S
C1254      C1256   1.557       .  S
C1254      H1260   1.110       .  S
C1255      H1261   1.085       .  S
C1255      C1256   1.374       .  D
C1257      H1262   1.086       .  S
C1257      C1258   1.365       .  D
C1258      C1268   1.487       .  S
C1263      C1264   1.560       .  S
C1263      C1269   1.559       .  S
C1263      C1267   1.557   1_554  S
C1263      C1563   1.624       .  S
C1264      H1271   1.084       .  S
C1264      C1265   1.381       .  D
C1265      C1266   1.545       .  S
C1266      C1270   1.506       .  S
C1266      C1268   1.533   1_554  S
C1266      H1272   1.106       .  S
C1267      H1273   1.086       .  S
C1267      C1268   1.371       .  D
C1269      H1274   1.082       .  S
C1269      C1270   1.357       .  D
O1275      C1278   1.278       .  A
O1275     Cd1280   2.503       .  S
C1276      O1285   1.277       .  A
C1276      O1281   1.282       .  A
O1277      C1283   1.275       .  A
O1277     Cd1280   2.373       .  S
C1278      O1286   1.277       .  A
C1278      C1334   1.498       .  S
C1279      O1284   1.280       .  A
C1279      O1282   1.283       .  A
C1279      C1389   1.438       .  S
Cd1280     O1287   2.471       .  S
Cd1280     O1286   2.503       .  S
Cd1280     O1285   2.449       .  S
Cd1280     O1281   2.434       .  S
Cd1280     O1284   2.302       .  S
Cd1280     O1282   2.354       .  S
C1283      O1287   1.277       .  A
C1283      C1292   1.463       .  S
O1288      C1291   1.270       .  A
O1288     Cd1293   2.365       .  S
C1289      O1298   1.269       .  A
C1289      O1294   1.267       .  A
C1289      C1383   1.434       .  S
O1290      C1296   1.283       .  A
O1290     Cd1293   2.509       .  S
C1291      O1299   1.272       .  A
C1291      C1515   1.447       .  S
C1292      O1297   1.269   1_655  A
C1292      O1295   1.264   1_655  A
Cd1293     O1300   2.333       .  S
Cd1293     O1299   2.413       .  S
Cd1293     O1298   2.400       .  S
Cd1293     O1294   2.341       .  S
C1296      O1300   1.258       .  A
O1301      C1304   1.283       .  A
O1301     Cd1306   2.428       .  S
C1302      O1311   1.274       .  A
C1302      O1307   1.279       .  A
O1303      C1309   1.281       .  A
O1303     Cd1306   2.342       .  S
C1304      O1312   1.274       .  A
C1304      C1351   1.507       .  S
C1305      O1310   1.274       .  A
C1305      O1308   1.276       .  A
C1305      C1318   1.456       .  S
Cd1306     O1313   2.305       .  S
Cd1306     O1312   2.417       .  S
Cd1306     O1311   2.467       .  S
Cd1306     O1307   2.512       .  S
Cd1306     O1310   2.353       .  S
Cd1306     O1308   2.452       .  S
C1309      O1313   1.277       .  A
O1314      C1317   1.270       .  A
O1314     Cd1319   2.346       .  S
C1315      O1324   1.268       .  A
C1315      O1320   1.267       .  A
O1316      C1322   1.282       .  A
O1316     Cd1319   2.492       .  S
C1317      O1325   1.274       .  A
C1317      C1489   1.445       .  S
C1318      O1323   1.271       .  A
C1318      O1321   1.262       .  A
Cd1319     O1326   2.309       .  S
Cd1319     O1325   2.413       .  S
Cd1319     O1324   2.385       .  S
Cd1319     O1320   2.366       .  S
Cd1319     O1323   2.464       .  S
Cd1319     O1321   2.370       .  S
C1322      O1326   1.257       .  A
C1322      C1346   1.458       .  S
C1327      C1376   1.515       .  S
C1327      C1328   1.534       .  S
C1327      C1333   1.531       .  S
C1327      C1331   1.552       .  S
C1328      H1335   1.087       .  S
C1328      C1329   1.363       .  D
C1329      C1341   1.483       .  S
C1330      C1334   1.560       .  S
C1330      C1332   1.558   1_655  S
C1330      H1336   1.110       .  S
C1331      H1337   1.085       .  S
C1332      C1365   1.510   1_455  S
C1333      H1338   1.087       .  S
C1339      C1340   1.553       .  S
C1339      C1343   1.562       .  S
C1339      C1463   1.614       .  S
C1340      H1347   1.083       .  S
C1341      C1342   1.530       .  S
C1342      C1346   1.507       .  S
C1342      H1348   1.107       .  S
C1343      H1349   1.084       .  S
C1343      C1344   1.388       .  D
C1344      C1356   1.509       .  S
C1345      H1350   1.085       .  S
C1345      C1346   1.353       .  D
C1351      C1352   1.531       .  S
C1351      C1357   1.529       .  S
C1351      C1355   1.551       .  S
C1352      H1359   1.087       .  S
C1352      C1353   1.359       .  D
C1353      C1354   1.560       .  S
C1354      C1358   1.542       .  S
C1354      C1356   1.558       .  S
C1355      H1361   1.085       .  S
C1355      C1356   1.372       .  D
C1357      H1362   1.087       .  S
C1357      C1358   1.363       .  D
C1358      C1368   1.476       .  S
C1363      C1364   1.565       .  S
C1363      C1369   1.550       .  S
C1363      C1367   1.549       .  S
C1363      C1439   1.613       .  S
C1364      C1365   1.388       .  D
C1365      C1366   1.548       .  S
C1366      C1370   1.508       .  S
C1366      C1368   1.530       .  S
C1366      H1372   1.105       .  S
C1367      H1373   1.084       .  S
C1367      C1368   1.363       .  D
C1369      H1374   1.085       .  S
C1369      C1370   1.353       .  D
C1370      C1392   1.461       .  S
O1375      C1378   1.277       .  A
O1375     Cd1380   2.499       .  S
C1376      O1385   1.277       .  A
C1376      O1381   1.282       .  A
O1377      C1383   1.279       .  A
O1377     Cd1380   2.275       .  S
C1378      O1386   1.278       .  A
C1379      O1384   1.274       .  A
C1379      O1382   1.277       .  A
C1379      C1396   1.458       .  S
Cd1380     O1387   2.357       .  S
Cd1380     O1386   2.513       .  S
Cd1380     O1385   2.459       .  S
Cd1380     O1381   2.426       .  S
Cd1380     O1384   2.357       .  S
Cd1380     O1382   2.455       .  S
C1383      O1387   1.283       .  A
O1388      C1391   1.270       .  A
O1388     Cd1393   2.368       .  S
C1389      O1398   1.268       .  A
C1389      O1394   1.268       .  A
O1390      C1396   1.269       .  A
O1390     Cd1393   2.463       .  S
C1391      O1399   1.272       .  A
C1391      C1415   1.447       .  S
C1392      O1397   1.282       .  A
C1392      O1395   1.256       .  A
Cd1393     O1400   2.390       .  S
Cd1393     O1399   2.411       .  S
Cd1393     O1398   2.395       .  S
Cd1393     O1394   2.365       .  S
Cd1393     O1397   2.505       .  S
Cd1393     O1395   2.314       .  S
C1396      O1400   1.263       .  A
C1402      O1407   1.279       .  A
O1403      C1409   1.281       .  A
O1403     Cd1406   2.404       .  S
C1404      O1412   1.272       .  A
C1404      C1451   1.505       .  S
C1405      O1410   1.274       .  A
C1405      O1408   1.274       .  A
C1405      C1422   1.467       .  S
Cd1406     O1413   2.312       .  S
Cd1406     O1412   2.406       .  S
Cd1406     O1411   2.424       .  S
Cd1406     O1410   2.405       .  S
Cd1406     O1408   2.468       .  S
C1409      O1413   1.271       .  A
C1409      C1517   1.443       .  S
O1414      C1417   1.264       .  A
O1414     Cd1419   2.429       .  S
C1415      O1424   1.270       .  A
C1415      O1420   1.267       .  A
O1416      C1422   1.268       .  A
O1416     Cd1419   2.503       .  S
C1417      O1425   1.265       .  A
C1417      C1505   1.440       .  S
C1418      O1423   1.269       .  A
C1418      O1421   1.261       .  A
C1418      C1446   1.482       .  S
Cd1419     O1426   2.417       .  S
Cd1419     O1425   2.373       .  S
Cd1419     O1424   2.428       .  S
Cd1419     O1420   2.379       .  S
Cd1419     O1423   2.457       .  S
Cd1419     O1421   2.494       .  S
C1422      O1426   1.259       .  A
C1427      C1478   1.507       .  S
C1427      C1428   1.520       .  S
C1427      C1433   1.520       .  S
C1427      C1431   1.553   1_565  S
C1428      H1435   1.084       .  S
C1428      C1429   1.366       .  D
C1429      C1430   1.549       .  S
C1429      C1441   1.490       .  S
C1430      C1434   1.562       .  S
C1430      C1432   1.543   1_565  S
C1431      C1432   1.374       .  D
C1433      H1438   1.087       .  S
C1433      C1434   1.359       .  D
C1439      C1440   1.555       .  S
C1439      C1445   1.557       .  S
C1439      C1443   1.549       .  S
C1440      H1447   1.083       .  S
C1440      C1441   1.377       .  D
C1441      C1442   1.554       .  S
C1442      C1446   1.527       .  S
C1442      C1444   1.537       .  S
C1442      H1448   1.110       .  S
C1443      C1444   1.373       .  D
C1444      C1456   1.498       .  S
C1445      H1450   1.084       .  S
C1445      C1446   1.352       .  D
C1451      C1452   1.520       .  S
C1451      C1457   1.520   1_565  S
C1451      C1455   1.549       .  S
C1452      H1459   1.087       .  S
C1453      C1502   1.476       .  S
C1453      C1454   1.562       .  S
C1454      C1456   1.545       .  S
C1454      H1460   1.111       .  S
C1455      H1461   1.086       .  S
C1458      C1468   1.488       .  S
C1463      C1464   1.552       .  S
C1463      C1467   1.555       .  S
C1464      H1471   1.084       .  S
C1464      C1465   1.373       .  D
C1466      C1470   1.525       .  S
C1466      C1468   1.549       .  S
C1467      H1473   1.083       .  S
C1469      H1474   1.084       .  S
C1469      C1470   1.352       .  D
C1470      C1496   1.482       .  S
O1475      C1478   1.282       .  A
O1475     Cd1480   2.419       .  S
C1476      O1485   1.274       .  A
C1476      O1481   1.280       .  A
C1476      C1529   1.483       .  S
C1478      O1486   1.273       .  A
C1479      O1482   1.278       .  A
C1479      C1589   1.441       .  S
Cd1480     O1487   2.470       .  S
Cd1480     O1486   2.423       .  S
Cd1480     O1485   2.437       .  S
Cd1480     O1481   2.491       .  S
Cd1480     O1482   2.324       .  S
C1483      O1487   1.275       .  A
O1488     Cd1493   2.438       .  S
C1489      O1498   1.269       .  A
C1489      O1494   1.267       .  A
O1490      C1496   1.268       .  A
O1490     Cd1493   2.447       .  S
C1491      O1499   1.265   1_545  A
C1491      C1579   1.443   1_545  S
C1492      O1495   1.260       .  A
Cd1493     O1500   2.493       .  S
Cd1493     O1498   2.430       .  S
Cd1493     O1494   2.369       .  S
Cd1493     O1495   2.430       .  S
C1496      O1500   1.261       .  A
C1502      O1511   1.270       .  A
O1503      C1509   1.274       .  A
O1503     Cd1506   2.395       .  S
C1504      O1512   1.271       .  A
C1504      C1551   1.505       .  S
C1505      O1510   1.280       .  A
C1505      O1508   1.272       .  A
Cd1506     O1513   2.472       .  S
Cd1506     O1512   2.405       .  S
Cd1506     O1511   2.417       .  S
Cd1506     O1510   2.391       .  S
Cd1506     O1508   2.314       .  S
C1509      O1513   1.274       .  A
C1509      C1518   1.466       .  S
O1514      C1517   1.264       .  A
O1514     Cd1519   2.440       .  S
C1515      O1520   1.268       .  A
O1516      C1522   1.269       .  A
O1516     Cd1519   2.457       .  S
C1517      O1525   1.265       .  A
C1518      O1523   1.269   1_655  A
C1518      O1521   1.258       .  A
Cd1519     O1526   2.498       .  S
Cd1519     O1525   2.372       .  S
Cd1519     O1520   2.374       .  S
C1522      O1526   1.261       .  A
C1522      C1546   1.482       .  S
C1527      C1576   1.508       .  S
C1527      C1528   1.519       .  S
C1527      C1533   1.520       .  S
C1527      C1531   1.555   1_565  S
C1528      H1535   1.087       .  S
C1528      C1529   1.357       .  D
C1529      C1530   1.567       .  S
C1530      C1534   1.551       .  S
C1530      C1532   1.549   1_565  S
C1530      H1536   1.110       .  S
C1531      C1532   1.377       .  D
C1533      H1538   1.084       .  S
C1533      C1534   1.364       .  D
C1534      C1544   1.492       .  S
C1539      C1540   1.551       .  S
C1539      C1545   1.553       .  S
C1539      C1543   1.557   1_556  S
C1540      H1547   1.084       .  S
C1540      C1541   1.374       .  D
C1541      C1542   1.539       .  S
C1541      C1556   1.502       .  S
C1542      C1546   1.531       .  S
C1542      C1544   1.555   1_556  S
C1542      H1548   1.110       .  S
C1543      H1549   1.084       .  S
C1543      C1544   1.380       .  D
C1545      H1550   1.084       .  S
C1545      C1546   1.349       .  D
C1551      C1557   1.519       .  S
C1551      C1555   1.552       .  S
C1552      H1559   1.084       .  S
C1552      C1553   1.366       .  D
C1553      C1565   1.490       .  S
C1554      C1558   1.565       .  S
C1554      C1556   1.545       .  S
C1554      H1560   1.111       .  S
C1555      H1561   1.086       .  S
C1555      C1556   1.372       .  D
C1557      H1562   1.087       .  S
C1557      C1558   1.360       .  D
C1563      C1564   1.554   1_554  S
C1563      C1569   1.557       .  S
C1563      C1567   1.561       .  S
C1564      H1571   1.086       .  S
C1564      C1565   1.376       .  D
C1565      C1566   1.552   1_556  S
C1566      C1570   1.527       .  S
C1566      C1568   1.537       .  S
C1567      H1573   1.083       .  S
C1567      C1568   1.376       .  D
C1569      H1574   1.080       .  S
C1569      C1570   1.355       .  D
C1570      C1596   1.484       .  S
O1575      C1578   1.279       .  A
O1575     Cd1580   2.484       .  S
C1576      O1585   1.273   1_565  A
C1576      O1581   1.281       .  A
C1578      O1586   1.274       .  A
C1579      O1582   1.275       .  A
Cd1580     O1587   2.476       .  S
Cd1580     O1586   2.424       .  S
Cd1580     O1585   2.442   1_565  S
Cd1580     O1581   2.408       .  S
Cd1580     O1582   2.307       .  S
C1583      O1587   1.275       .  A
O1588      C1591   1.268       .  A
O1588     Cd1593   2.396       .  S
C1589      O1598   1.266       .  A
O1590      C1596   1.267       .  A
O1590     Cd1593   2.453       .  S
C1591      O1599   1.268       .  A
C1592      O1595   1.259       .  A
Cd1593     O1600   2.500       .  S
Cd1593     O1599   2.399       .  S
Cd1593     O1594   2.408       .  S
Cd1593     O1595   2.406       .  S
C1596      O1600   1.262       .  A
