geometry optimzed in LAMMPS
_audit_creation_date              2020-11-30 
_audit_creation_method            'lammps2cif' 
_symmetry_space_group_name_H-M    'P1' 
_symmetry_Int_Tables_number       1 
_symmetry_cell_setting            triclinic 
loop_ 
_symmetry_equiv_pos_as_xyz 
  x,y,z 
_cell_length_a                    46.01372227 
_cell_length_b                    45.48859289099854 
_cell_length_c                    55.66739119001731 
_cell_angle_alpha                 90.28701020339653 
_cell_angle_beta                  90.0890087799762 
_cell_angle_gamma                 89.87284419615824 
loop_ 
_atom_site_label 
_atom_site_type_symbol 
_atom_site_fract_x 
_atom_site_fract_y 
_atom_site_fract_z 
_atom_site_charge 
N1          N  0.01572448  0.01934702  0.14097594    -0.36100
N2          N  0.97660943  0.46876437  0.13985712    -0.56700
N3          N  0.47659959  0.46907711  0.19218348    -0.36100
N4          N  0.51203183  0.01973121  0.19364482    -0.56700
C5          C  0.00770127  0.01857854  0.11758278     0.27500
C6          C  0.02350535  0.04735591  0.14611935     0.27500
C7          C  0.45600724  0.44898056  0.18712525     0.27500
C8          C  0.47382408  0.47632102  0.21564638     0.27500
C9          C  0.98573868  0.46894659  0.11680870     0.36100
C10         C  0.96685575  0.44126707  0.14403210     0.36100
C11         C  0.53173120  0.04102439  0.18993547     0.36100
C12         C  0.51302789  0.01331083  0.21727018     0.36100
C13         C  0.01147671  0.04604735  0.10744176    -0.21400
C14         C  0.02106620  0.06433911  0.12552660    -0.21400
C15         C  0.43970433  0.44340005  0.20750224    -0.21400
C16         C  0.45078707  0.46093720  0.22552214    -0.21400
C17         C  0.98103128  0.44183444  0.10607716    -0.22500
C18         C  0.96939548  0.42412664  0.12344188    -0.22500
C19         C  0.54539982  0.04835547  0.21133761    -0.22500
C20         C  0.53384363  0.03042476  0.22865967    -0.22500
C21         C  0.99724599  0.49366403  0.10511038    -0.17800
C22         C  0.03279857  0.05791138  0.16885526    -0.17800
C23         C  0.49341354  0.99415739  0.22875321    -0.17800
C24         C  0.45574307  0.43153345  0.16621454    -0.17800
H25         H  0.00706208  0.05242736  0.08908142     0.15100
H26         H  0.02558206  0.08753684  0.12361945     0.15100
H27         H  0.42254156  0.42734168  0.20938455     0.15100
H28         H  0.44351668  0.46137119  0.24400140     0.15100
H29         H  0.98599002  0.43534978  0.08779656     0.13400
H30         H  0.96357862  0.40126605  0.12108422     0.13400
H31         H  0.56117714  0.06563460  0.21424322     0.13400
H32         H  0.53928792  0.03084986  0.24757340     0.13400
H33         H  0.01746665  0.00131837  0.15232074     0.26600
H34         H  0.49448165  0.47333086  0.18136938     0.26600
N35         N  0.01372223  0.22008010  0.14055282    -0.36100
N36         N  0.97362257  0.26934760  0.13914673    -0.56700
N37         N  0.47584840  0.27138276  0.19188478    -0.36100
N38         N  0.51236554  0.22214989  0.19336717    -0.56700
C39         C  0.00458948  0.21956079  0.11744647     0.27500
C40         C  0.02130044  0.19228578  0.14632154     0.27500
C41         C  0.45338719  0.28916306  0.18644735     0.27500
C42         C  0.47351865  0.26442238  0.21540225     0.27500
C43         C  0.98317204  0.26909196  0.11619606     0.36100
C44         C  0.96386996  0.29688979  0.14343354     0.36100
C45         C  0.53240934  0.20116430  0.18935716     0.36100
C46         C  0.51475148  0.22999478  0.21669886     0.36100
C47         C  0.00699231  0.19139340  0.10815170    -0.21400
C48         C  0.01714706  0.17401884  0.12650895    -0.21400
C49         C  0.43633654  0.29359400  0.20664570    -0.21400
C50         C  0.44884399  0.27756676  0.22492899    -0.21400
C51         C  0.97880926  0.29621748  0.10561884    -0.22500
C52         C  0.96693511  0.31403624  0.12302003    -0.22500
C53         C  0.54786228  0.19554760  0.21021414    -0.22500
C54         C  0.53704999  0.21429842  0.22750164    -0.22500
C55         C  0.99474826  0.24417423  0.10457738    -0.17800
C56         C  0.53247823  0.18319117  0.16877782    -0.17800
C57         C  0.49461022  0.24851087  0.22855234    -0.17800
C58         C  0.45234898  0.30652140  0.16565661    -0.17800
H59         H  0.00141877  0.18404413  0.09020100     0.15100
H60         H  0.02110932  0.15060742  0.12527585     0.15100
H61         H  0.41767727  0.30800499  0.20822778     0.15100
H62         H  0.44133707  0.27670022  0.24332562     0.15100
H63         H  0.98419553  0.30262498  0.08746191     0.13400
H64         H  0.96135678  0.33697385  0.12080851     0.13400
H65         H  0.56441624  0.17891992  0.21282822     0.13400
H66         H  0.54393918  0.21521825  0.24607912     0.13400
H67         H  0.51645669  0.23876205  0.15116238     0.26600
H68         H  0.49419824  0.26863759  0.18118260     0.26600
N69         N  0.23079748  0.47370459  0.14055611    -0.36100
N70         N  0.27055946  0.02362903  0.14052155    -0.56700
N71         N  0.26735468  0.02421001  0.19296751    -0.36100
N72         N  0.23077853  0.47490223  0.19305241    -0.56700
C73         C  0.24024674  0.47375911  0.11757179     0.27500
C74         C  0.22261378  0.44587707  0.14570849     0.27500
C75         C  0.28921812  0.04294642  0.18835181     0.27500
C76         C  0.26944282  0.01654704  0.21634966     0.27500
C77         C  0.26223146  0.02330587  0.11721508     0.36100
C78         C  0.28005741  0.05119064  0.14519313     0.36100
C79         C  0.21041357  0.45450110  0.18848413     0.36100
C80         C  0.22852554  0.48190644  0.21652854     0.36100
C81         C  0.23734429  0.44591178  0.10768138    -0.21400
C82         C  0.22666642  0.42815050  0.12557800    -0.21400
C83         C  0.30560032  0.04734127  0.20896533    -0.21400
C84         C  0.29334264  0.03026966  0.22663062    -0.21400
C85         C  0.26736972  0.05036974  0.10678068    -0.22500
C86         C  0.27825215  0.06822358  0.12461679    -0.22500
C87         C  0.19475186  0.44859375  0.20915906    -0.22500
C88         C  0.20608229  0.46624170  0.22696333    -0.22500
C89         C  0.25053542  0.49863625  0.10522991    -0.17800
C90         C  0.21105850  0.43643646  0.16796013    -0.17800
C91         C  0.24883604  0.49961847  0.22882679    -0.17800
C92         C  0.29015402  0.06090617  0.16790116    -0.17800
H93         H  0.24287833  0.43900537  0.08961384     0.15100
H94         H  0.22225604  0.40489453  0.12379189     0.15100
H95         H  0.32356329  0.06242750  0.21125281     0.15100
H96         H  0.30039672  0.02918449  0.24516024     0.15100
H97         H  0.26301328  0.05678944  0.08842162     0.13400
H98         H  0.28395884  0.09111436  0.12254274     0.13400
H99         H  0.17812203  0.43204410  0.21141262     0.13400
H100        H  0.19951247  0.46642147  0.24561976     0.13400
H101        H  0.22809716  0.49218223  0.15143325     0.26600
H102        H  0.24936185  0.02125364  0.18187694     0.26600
N103        N  0.22749375  0.27309382  0.14416476    -0.36100
N104        N  0.22766801  0.27221647  0.19696056    -0.56700
N105        N  0.26381266  0.22212169  0.19636174    -0.36100
N106        N  0.26657841  0.22281655  0.14374921    -0.56700
C107        C  0.22096322  0.30130150  0.14967658     0.27500
C108        C  0.23756878  0.27284997  0.12133057     0.27500
C109        C  0.26522849  0.22897612  0.22001807     0.27500
C110        C  0.28562998  0.20314781  0.19164195     0.27500
C111        C  0.20865250  0.29410882  0.19271844     0.36100
C112        C  0.22545815  0.26552117  0.22049612     0.36100
C113        C  0.25705944  0.22264793  0.12075727     0.36100
C114        C  0.27568408  0.19518022  0.14835568     0.36100
C115        C  0.22708221  0.31904673  0.13002779    -0.21400
C116        C  0.23704478  0.30094291  0.11198933    -0.21400
C117        C  0.28856076  0.21443727  0.23040954    -0.21400
C118        C  0.30135423  0.19794754  0.21246987    -0.21400
C119        C  0.19396187  0.30134254  0.21367093    -0.22500
C120        C  0.20439000  0.28294142  0.23126950    -0.22500
C121        C  0.26055903  0.19511711  0.11051967    -0.22500
C122        C  0.27194878  0.17751102  0.12815047    -0.22500
C123        C  0.20901625  0.31128198  0.17171843    -0.17800
C124        C  0.24665423  0.24762530  0.10873308    -0.17800
C125        C  0.28739108  0.18592939  0.17057680    -0.17800
C126        C  0.24464258  0.24629646  0.23258557    -0.17800
H127        H  0.22474173  0.34264314  0.12868120     0.15100
H128        H  0.24383586  0.30775801  0.09426056     0.15100
H129        H  0.29504451  0.21483495  0.24910718     0.15100
H130        H  0.31924689  0.18270445  0.21468305     0.15100
H131        H  0.17836358  0.31893521  0.21618284     0.13400
H132        H  0.19819227  0.28334454  0.25001478     0.13400
H133        H  0.25496523  0.18834999  0.09242496     0.13400
H134        H  0.27665754  0.15431821  0.12623181     0.13400
H135        H  0.22329187  0.25468128  0.15466445     0.26600
H136        H  0.24629843  0.22598943  0.18496926     0.26600
N137        N  0.02579744  0.97348944  0.42053317    -0.36100
N138        N  0.02401759  0.97011111  0.36739907    -0.56700
N139        N  0.47209813  0.00548982  0.36898443    -0.36100
N140        N  0.47497475  0.00754219  0.42198952    -0.56700
C141        C  0.04696544  0.95396820  0.41539375     0.27500
C142        C  0.02042926  0.97194010  0.44446216     0.27500
C143        C  0.47181311  0.99536378  0.34607396     0.27500
C144        C  0.44432248  0.01170567  0.37489104     0.27500
C145        C  0.05215565  0.96357492  0.37164906     0.36100
C146        C  0.02256672  0.97894594  0.34426430     0.36100
C147        C  0.48113964  0.00938017  0.44567200     0.36100
C148        C  0.45179525  0.02487171  0.41801590     0.36100
C149        C  0.05535638  0.93963731  0.43617614    -0.21400
C150        C  0.03870454  0.95095227  0.45452696    -0.21400
C151        C  0.44372706  0.99554627  0.33716393    -0.21400
C152        C  0.42628276  0.00569716  0.35541717    -0.21400
C153        C  0.06851820  0.96778238  0.35100349    -0.22500
C154        C  0.04965843  0.97740641  0.33358608    -0.22500
C155        C  0.46166991  0.02843071  0.45680252    -0.22500
C156        C  0.44313919  0.03823717  0.43924822    -0.22500
C157        C  0.06319791  0.95396919  0.39396043    -0.17800
C158        C  0.50147558  0.99098522  0.45745666    -0.17800
C159        C  0.43482398  0.02355659  0.39704706    -0.17800
C160        C  0.49664868  0.98753615  0.33274424    -0.17800
H161        H  0.07300016  0.92403920  0.43812171     0.15100
H162        H  0.04121727  0.94523269  0.47322255     0.15100
H163        H  0.43657207  0.98892053  0.31941579     0.15100
H164        H  0.40295580  0.00856309  0.35435258     0.15100
H165        H  0.09165968  0.96457407  0.34872734     0.13400
H166        H  0.05529875  0.98311367  0.31532750     0.13400
H167        H  0.45956430  0.03356325  0.47568668     0.13400
H168        H  0.42428994  0.05211162  0.44205261     0.13400
H169        H  0.01951820  0.99015899  0.40896184     0.26600
H170        H  0.49044259  0.01044136  0.37917722     0.26600
N171        N  0.01990927  0.28075787  0.42048397    -0.36100
N172        N  0.47287386  0.24198398  0.42300202    -0.56700
N173        N  0.47325829  0.23579567  0.36967587    -0.36100
N174        N  0.02098333  0.27706462  0.36730825    -0.56700
C175        C  0.01313570  0.28499406  0.44396388     0.27500
C176        C  0.03986345  0.30096788  0.41441205     0.27500
C177        C  0.44593505  0.22733502  0.37516522     0.27500
C178        C  0.47323567  0.24295420  0.34604747     0.27500
C179        C  0.47697519  0.24471932  0.44697053     0.36100
C180        C  0.45150717  0.22224726  0.41969956     0.36100
C181        C  0.04813083  0.28687630  0.37176964     0.36100
C182        C  0.02135855  0.26637035  0.34458518     0.36100
C183        C  0.02913379  0.30865680  0.45272997    -0.21400
C184        C  0.04606114  0.31855804  0.43409321    -0.21400
C185        C  0.42872684  0.22832321  0.35463417    -0.21400
C186        C  0.44601196  0.23802095  0.33626830    -0.21400
C187        C  0.45785702  0.22634557  0.45898571    -0.22500
C188        C  0.44188056  0.21210144  0.44172309    -0.22500
C189        C  0.06552216  0.28297245  0.35161572    -0.22500
C190        C  0.04836210  0.27036439  0.33425784    -0.22500
C191        C  0.49527267  0.26607725  0.45787326    -0.17800
C192        C  0.05760833  0.29869470  0.39394971    -0.17800
C193        C  0.49736169  0.25335362  0.33300735    -0.17800
C194        C  0.43569135  0.21926794  0.39817159    -0.17800
H195        H  0.03009407  0.31720127  0.47083582     0.15100
H196        H  0.06248596  0.33551390  0.43524771     0.15100
H197        H  0.40591070  0.22293544  0.35302105     0.15100
H198        H  0.43913543  0.24164442  0.31791601     0.15100
H199        H  0.45405543  0.22460433  0.47807038     0.13400
H200        H  0.42369126  0.19761542  0.44501340     0.13400
H201        H  0.08824749  0.28841468  0.34956133     0.13400
H202        H  0.05518889  0.26401976  0.31636574     0.13400
H203        H  0.01587490  0.26209719  0.41021410     0.26600
H204        H  0.49120331  0.23517836  0.38105779     0.26600
N205        N  0.22357167  0.47700269  0.42062428    -0.36100
N206        N  0.27247504  0.51404843  0.42207776    -0.56700
N207        N  0.27350476  0.51550344  0.36883920    -0.36100
N208        N  0.22419298  0.47610642  0.36751543    -0.56700
C209        C  0.22962341  0.47503634  0.44442278     0.27500
C210        C  0.20332934  0.45658494  0.41539767     0.27500
C211        C  0.30102338  0.52352882  0.37410572     0.27500
C212        C  0.27312066  0.50762537  0.34535378     0.27500
C213        C  0.26760507  0.51384368  0.44600000     0.36100
C214        C  0.29534885  0.53176884  0.41832610     0.36100
C215        C  0.19698919  0.46641134  0.37171870     0.36100
C216        C  0.22443443  0.48512006  0.34440389     0.36100
C217        C  0.21260912  0.45292674  0.45430717    -0.21400
C218        C  0.19612663  0.44134245  0.43598596    -0.21400
C219        C  0.31797096  0.52168487  0.35348296    -0.21400
C220        C  0.30021102  0.51202590  0.33526677    -0.21400
C221        C  0.28750877  0.53205751  0.45749300    -0.22500
C222        C  0.30506139  0.54331300  0.43994942    -0.22500
C223        C  0.18018078  0.46878170  0.35105960    -0.22500
C224        C  0.19777572  0.48022493  0.33363661    -0.22500
C225        C  0.24831348  0.49422764  0.45752970    -0.17800
C226        C  0.18699290  0.45574034  0.39399584    -0.17800
C227        C  0.24877254  0.49696752  0.33274189    -0.17800
C228        C  0.31159084  0.53204383  0.39697371    -0.17800
H229        H  0.21079666  0.44644311  0.47287493     0.15100
H230        H  0.17949055  0.42471064  0.43781912     0.15100
H231        H  0.34084901  0.52665312  0.35168339     0.15100
H232        H  0.30668635  0.50795347  0.31685983     0.15100
H233        H  0.29069718  0.53552009  0.47652599     0.13400
H234        H  0.32404984  0.55688602  0.44288311     0.13400
H235        H  0.15752122  0.46316371  0.34872689     0.13400
H236        H  0.19149193  0.48510572  0.31533637     0.13400
H237        H  0.22886492  0.49418573  0.40927933     0.26600
H238        H  0.25565769  0.51685243  0.38022259     0.26600
N239        N  0.21963436  0.27074062  0.42395301    -0.36100
N240        N  0.21825916  0.26451995  0.37133882    -0.56700
N241        N  0.27177347  0.23148607  0.37324518    -0.36100
N242        N  0.27273941  0.23930545  0.42620265    -0.56700
C243        C  0.19681732  0.28796786  0.41830620     0.27500
C244        C  0.22624206  0.27591149  0.44731365     0.27500
C245        C  0.27004980  0.23741341  0.34943286     0.27500
C246        C  0.30000923  0.22613952  0.37828205     0.27500
C247        C  0.19057241  0.27293289  0.37542944     0.36100
C248        C  0.21900090  0.25415341  0.34854662     0.36100
C249        C  0.26836411  0.24173007  0.45015056     0.36100
C250        C  0.29659713  0.22254766  0.42311391     0.36100
C251        C  0.18864198  0.30442149  0.43818655    -0.21400
C252        C  0.20708729  0.29679196  0.45651622    -0.21400
C253        C  0.29723399  0.23462760  0.33904762    -0.21400
C254        C  0.31620652  0.22780267  0.35726048    -0.21400
C255        C  0.17374117  0.26809763  0.35507142    -0.22500
C256        C  0.19190886  0.25655214  0.33790991    -0.22500
C257        C  0.28972413  0.22624871  0.46239215    -0.22500
C258        C  0.30757637  0.21411525  0.44525823    -0.22500
C259        C  0.18045087  0.28583316  0.39698513    -0.17800
C260        C  0.24727628  0.26032699  0.46090148    -0.17800
C261        C  0.31175609  0.21978117  0.40121762    -0.17800
C262        C  0.24441859  0.24465971  0.33679811    -0.17800
H263        H  0.17040861  0.31940802  0.43961865     0.15100
H264        H  0.20541054  0.30502134  0.47469570     0.15100
H265        H  0.30292720  0.23764905  0.32036751     0.15100
H266        H  0.33937860  0.22457474  0.35517976     0.15100
H267        H  0.15082867  0.27268638  0.35270546     0.13400
H268        H  0.18586763  0.25050197  0.31975288     0.13400
H269        H  0.29316512  0.22497119  0.48158128     0.13400
H270        H  0.32731596  0.20182924  0.44869692     0.13400
H271        H  0.22686925  0.25334224  0.41343057     0.26600
H272        H  0.25446240  0.22923040  0.38508144     0.26600
O273        O  0.50231459  0.01417852  0.56813394    -0.72500
O274        O  0.50231635  0.01479923  0.49598244    -0.73400
O275        O  0.45645313  0.01545330  0.53204714    -0.62100
O276        O  0.04697366  0.01336583  0.53219307    -0.70500
O277        O  0.04623792  0.46498560  0.53185365    -0.70000
O278        O  0.45563499  0.46700404  0.53122251    -0.61300
O279        O  0.50096390  0.46618820  0.49541361    -0.73800
O280        O  0.50035851  0.46566298  0.56771028    -0.72600
Cu281      Cu  0.50198554  0.01607018  0.53209931     1.04600
Cu282      Cu  0.50077524  0.46431668  0.53153607     1.04300
C283        C  0.50159871  0.48985392  0.57941734     0.93700
C284        C  0.50176348  0.49061855  0.48421942     0.92900
C285        C  0.44160730  0.49150187  0.53158549     0.85000
C286        C  0.06104987  0.48897682  0.53211889     0.91300
O287        O  0.49671807  0.29712851  0.56789262    -0.72500
O288        O  0.49462557  0.29328119  0.49526091    -0.73400
O289        O  0.45032796  0.29557036  0.53222957    -0.62100
O290        O  0.04104804  0.29464640  0.53082009    -0.70500
O291        O  0.04054100  0.24634047  0.53386807    -0.70000
O292        O  0.45011271  0.24709602  0.53233679    -0.61300
O293        O  0.49662613  0.24478021  0.49709927    -0.73800
O294        O  0.49413366  0.24858238  0.56891975    -0.72600
Cu295      Cu  0.49568973  0.29685256  0.53150009     1.04600
Cu296      Cu  0.49533562  0.24512771  0.53309448     1.04300
C297        C  0.49557016  0.27325190  0.57988213     0.93700
C298        C  0.49562283  0.26828987  0.48468075     0.92900
C299        C  0.43578595  0.27142125  0.53238418     0.85000
C300        C  0.05523226  0.27028251  0.53231701     0.91300
O301        O  0.20646404  0.46334567  0.53080587    -0.72500
O302        O  0.29702990  0.46531766  0.52928173    -0.73400
O303        O  0.25339930  0.46071557  0.56576133    -0.62100
O304        O  0.25094258  0.46717594  0.49421707    -0.70500
O305        O  0.24875843  0.01567687  0.49709844    -0.70000
O306        O  0.25192260  0.00925130  0.56908908    -0.61300
O307        O  0.29597651  0.01370188  0.53224259    -0.73800
O308        O  0.20547316  0.01164804  0.53406871    -0.72600
Cu309      Cu  0.25194394  0.46253705  0.52990736     1.04600
Cu310      Cu  0.25051813  0.01423407  0.53322747     1.04300
C311        C  0.19157166  0.48727777  0.53253596     0.93700
C312        C  0.31096282  0.48976169  0.53067189     0.92900
C313        C  0.25331723  0.48386423  0.57876486     0.85000
C314        C  0.24926844  0.49228987  0.48421736     0.91300
O315        O  0.24772875  0.28936702  0.49697359    -0.72500
O316        O  0.24330635  0.29847290  0.56904976    -0.73400
O317        O  0.29081079  0.29415444  0.53420717    -0.62100
O318        O  0.20042518  0.29394020  0.53118775    -0.70500
O319        O  0.20015741  0.24584114  0.53590634    -0.70000
O320        O  0.29088249  0.24578076  0.53662505    -0.61300
O321        O  0.24515415  0.25004419  0.57225203    -0.73800
O322        O  0.24596895  0.24092287  0.50065536    -0.72600
Cu323      Cu  0.24560418  0.29563453  0.53276316     1.04600
Cu324      Cu  0.24557513  0.24404297  0.53654224     1.04300
C325        C  0.24713668  0.26373571  0.48745702     0.93700
C326        C  0.24335471  0.27540707  0.58208930     0.92900
C327        C  0.30527534  0.26995450  0.53525659     0.85000
C328        C  0.18585604  0.26996965  0.53315282     0.91300
O329        O  0.02307209  0.49225753  0.99586560    -0.72500
O330        O  0.02191871  0.49454007  0.06763032    -0.73400
O331        O  0.02292450  0.44795644  0.03224658    -0.62100
O332        O  0.02132034  0.03859434  0.03088535    -0.70500
O333        O  0.97332986  0.03806197  0.03110662    -0.70000
O334        O  0.97495799  0.44763792  0.03068619    -0.61300
O335        O  0.97369140  0.49258837  0.06700431    -0.73800
O336        O  0.97480741  0.49315876  0.99490577    -0.72600
Cu337      Cu  0.02395659  0.49335296  0.03170661     1.04600
Cu338      Cu  0.47251341  0.49282243  0.03093404     1.04300
C339        C  0.99927264  0.49280608  0.98410195     0.93700
C340        C  0.99763429  0.49369217  0.07862161     0.92900
C341        C  0.99905820  0.43337867  0.03141554     0.85000
C342        C  0.99711888  0.05274548  0.03070949     0.91300
O343        O  0.01845577  0.19764633  0.02961470    -0.72500
O344        O  0.02012301  0.28800652  0.03148866    -0.73400
O345        O  0.01921473  0.24182244  0.06682085    -0.62100
O346        O  0.01898114  0.24420335  0.99452080    -0.70500
O347        O  0.97071518  0.24327495  0.99487029    -0.70000
O348        O  0.97100546  0.24423287  0.06666120    -0.61300
O349        O  0.97213890  0.28878905  0.03058066    -0.73800
O350        O  0.97048352  0.19813700  0.03073999    -0.72600
Cu351      Cu  0.02085791  0.24282366  0.03062518     1.04600
Cu352      Cu  0.46937539  0.24355834  0.03071604     1.04300
C353        C  0.99436442  0.18345991  0.02997061     0.93700
C354        C  0.99635045  0.30279876  0.03102055     0.92900
C355        C  0.99504977  0.24325906  0.07806603     0.85000
C356        C  0.99466594  0.24419081  0.98340899     0.91300
O357        O  0.22302284  0.49913611  0.99537113    -0.72500
O358        O  0.22511951  0.49779495  0.06785015    -0.73400
O359        O  0.22390983  0.04362632  0.03236529    -0.62100
O360        O  0.22377579  0.45324797  0.03134632    -0.70500
O361        O  0.27177997  0.45292980  0.03134298    -0.70000
O362        O  0.27186725  0.04368579  0.03079288    -0.61300
O363        O  0.27334589  0.49909357  0.06690799    -0.73800
O364        O  0.27123979  0.49758198  0.99493207    -0.72600
Cu365      Cu  0.22231222  0.49846138  0.03171044     1.04600
Cu366      Cu  0.27369812  0.49830976  0.03091709     1.04300
C367        C  0.24699134  0.49834959  0.98378283     0.93700
C368        C  0.24961144  0.49848269  0.07870625     0.92900
C369        C  0.24782443  0.05806756  0.03184969     0.85000
C370        C  0.24768988  0.43867789  0.03163163     0.91300
O371        O  0.27297458  0.20307281  0.03487616    -0.72500
O372        O  0.27273400  0.29359932  0.03571408    -0.73400
O373        O  0.27174583  0.24763085  0.07140084    -0.62100
O374        O  0.27461502  0.24882648  0.99938469    -0.70500
O375        O  0.22642416  0.24755782  0.99778681    -0.70000
O376        O  0.22352449  0.24897284  0.07029210    -0.61300
O377        O  0.22477958  0.29367898  0.03380367    -0.73800
O378        O  0.22498078  0.20306945  0.03427670    -0.72600
Cu379      Cu  0.27462129  0.24830046  0.03541644     1.04600
Cu380      Cu  0.22324981  0.24833423  0.03400791     1.04300
C381        C  0.24901324  0.18865975  0.03450167     0.93700
C382        C  0.24876018  0.30805543  0.03459135     0.92900
C383        C  0.24729297  0.24812649  0.08218684     0.85000
C384        C  0.25107970  0.24815982  0.98723216     0.91300
N385        N  0.02503299  0.46986209  0.92338122    -0.36100
N386        N  0.98319410  0.01846593  0.92161322    -0.56700
N387        N  0.49214409  0.02122790  0.86960830    -0.36100
N388        N  0.53022196  0.47208242  0.87101439    -0.56700
C389        C  0.01386683  0.46940581  0.94584055     0.27500
C390        C  0.03506784  0.44246424  0.91860673     0.27500
C391        C  0.47007224  0.04029349  0.87294662     0.27500
C392        C  0.49275379  0.01442968  0.84593842     0.27500
C393        C  0.98823492  0.01748611  0.94551999     0.36100
C394        C  0.97258650  0.04562528  0.91715637     0.36100
C395        C  0.54892972  0.45015451  0.87593735     0.36100
C396        C  0.53314495  0.47819048  0.84746255     0.36100
C397        C  0.01805881  0.44194982  0.95592536    -0.21400
C398        C  0.03104194  0.42480214  0.93863236    -0.21400
C399        C  0.45652312  0.04604109  0.85125037    -0.21400
C400        C  0.47058025  0.02933832  0.83418312    -0.21400
C401        C  0.97980565  0.04361947  0.95638779    -0.22500
C402        C  0.97012046  0.06159612  0.93834324    -0.22500
C403        C  0.56423787  0.44241281  0.85542926    -0.22500
C404        C  0.55455390  0.46054422  0.83740979    -0.22500
C405        C  0.00035357  0.49323623  0.95765989    -0.17800
C406        C  0.54690631  0.43257939  0.89656145    -0.17800
C407        C  0.51396533  0.49652049  0.83453245    -0.17800
C408        C  0.46528860  0.05624114  0.89420472    -0.17800
H409        H  0.01161924  0.43476239  0.97364593     0.15100
H410        H  0.03667262  0.40184868  0.94065328     0.15100
H411        H  0.43885192  0.06127960  0.84804653     0.15100
H412        H  0.46555886  0.02893952  0.81518674     0.15100
H413        H  0.98118253  0.04940388  0.97524026     0.13400
H414        H  0.96234174  0.08391756  0.94056082     0.13400
H415        H  0.57951973  0.42443929  0.85343610     0.13400
H416        H  0.56117330  0.45954779  0.81877546     0.13400
H417        H  0.02693972  0.48828812  0.91252296     0.26600
H418        H  0.50829515  0.01694927  0.88219556     0.26600
N419        N  0.97267208  0.21981677  0.92201517    -0.36100
N420        N  0.01104523  0.27075862  0.92136629    -0.56700
N421        N  0.50474135  0.27247831  0.86918835    -0.36100
N422        N  0.46978298  0.22126285  0.86945929    -0.56700
C423        C  0.98297577  0.22009434  0.94477949     0.27500
C424        C  0.96500246  0.19177520  0.91699025     0.27500
C425        C  0.52611671  0.29220194  0.87299437     0.27500
C426        C  0.50467615  0.26597433  0.84544790     0.27500
C427        C  0.00443547  0.26991379  0.94499935     0.36100
C428        C  0.02072788  0.29823974  0.91703681     0.36100
C429        C  0.45218195  0.19839396  0.87396434     0.36100
C430        C  0.46627514  0.22794235  0.84606911     0.36100
C431        C  0.98064903  0.19234753  0.95472037    -0.21400
C432        C  0.96961117  0.17436059  0.93708212    -0.21400
C433        C  0.53995228  0.29834150  0.85150579    -0.21400
C434        C  0.52657858  0.28156247  0.83410706    -0.21400
C435        C  0.01054389  0.29665029  0.95586904    -0.22500
C436        C  0.02064570  0.31474161  0.93807704    -0.22500
C437        C  0.43719995  0.19039923  0.85335921    -0.22500
C438        C  0.44571114  0.20956506  0.83571226    -0.22500
C439        C  0.99398213  0.24487601  0.95695496    -0.17800
C440        C  0.45433912  0.18117305  0.89471244    -0.17800
C441        C  0.48401676  0.24798026  0.83360934    -0.17800
C442        C  0.52980263  0.30843415  0.89438563    -0.17800
H443        H  0.98696447  0.18560701  0.97261123     0.15100
H444        H  0.96553615  0.15104430  0.93885855     0.15100
H445        H  0.55715548  0.31411689  0.84858904     0.15100
H446        H  0.53180950  0.28157036  0.81515833     0.15100
H447        H  0.00762267  0.30260529  0.97456366     0.13400
H448        H  0.02705742  0.33744873  0.94041728     0.13400
H449        H  0.42255952  0.17198938  0.85113353     0.13400
H450        H  0.43868773  0.20899348  0.81715768     0.13400
H451        H  0.96957314  0.23807809  0.91114198     0.26600
H452        H  0.48838751  0.26764679  0.88137461     0.26600
N453        N  0.27001450  0.47325190  0.92258273    -0.36100
N454        N  0.22897327  0.02278575  0.92099214    -0.56700
N455        N  0.23423020  0.02226152  0.86858872    -0.36100
N456        N  0.27133506  0.47202259  0.87000050    -0.56700
C457        C  0.25988654  0.47369641  0.94541427     0.27500
C458        C  0.28062893  0.44590512  0.91841009     0.27500
C459        C  0.21399034  0.04328980  0.87218617     0.27500
C460        C  0.23270462  0.01400844  0.84521677     0.27500
C461        C  0.23509353  0.02226469  0.94478752     0.36100
C462        C  0.21973259  0.05041208  0.91616393     0.36100
C463        C  0.29151444  0.45139098  0.87484263     0.36100
C464        C  0.27233421  0.47681915  0.84610981     0.36100
C465        C  0.26504461  0.44677579  0.95615196    -0.21400
C466        C  0.27782328  0.42913889  0.93907374    -0.21400
C467        C  0.19934392  0.04873548  0.85091430    -0.21400
C468        C  0.21075365  0.02979847  0.83395236    -0.21400
C469        C  0.22861573  0.04913199  0.95527049    -0.22500
C470        C  0.21932500  0.06711553  0.93710280    -0.22500
C471        C  0.30571445  0.44312515  0.85391393    -0.22500
C472        C  0.29371780  0.45943487  0.83569759    -0.22500
C473        C  0.24700079  0.49803569  0.95715061    -0.17800
C474        C  0.29245316  0.43544557  0.89645374    -0.17800
C475        C  0.25228855  0.49455513  0.83345427    -0.17800
C476        C  0.21209609  0.06084448  0.89305512    -0.17800
H477        H  0.25963304  0.44030579  0.97428814     0.15100
H478        H  0.28413517  0.40645509  0.94168104     0.15100
H479        H  0.18274255  0.06520059  0.84786186     0.15100
H480        H  0.20443081  0.02872186  0.81523530     0.15100
H481        H  0.23135630  0.05547147  0.97390456     0.13400
H482        H  0.21334214  0.08997237  0.93922382     0.13400
H483        H  0.32195838  0.42604364  0.85187833     0.13400
H484        H  0.29932114  0.45780722  0.81686252     0.13400
H485        H  0.27134126  0.49118232  0.91113293     0.26600
H486        H  0.25088574  0.01756026  0.88056884     0.26600
N487        N  0.23438698  0.22388044  0.92419865    -0.36100
N488        N  0.23603215  0.22593118  0.87148064    -0.56700
N489        N  0.27302720  0.27501431  0.87371748    -0.36100
N490        N  0.27514577  0.27288242  0.92635506    -0.56700
C491        C  0.22627372  0.19612633  0.91840060     0.27500
C492        C  0.24223033  0.22386553  0.94765057     0.27500
C493        C  0.27422947  0.26923762  0.84987826     0.27500
C494        C  0.29539604  0.29295098  0.87905399     0.27500
C495        C  0.21658138  0.20435875  0.87498202     0.36100
C496        C  0.23358309  0.23408206  0.84827947     0.36100
C497        C  0.26580313  0.27270355  0.94938551     0.36100
C498        C  0.28621918  0.29997572  0.92252052     0.36100
C499        C  0.22864605  0.17843137  0.93859151    -0.21400
C500        C  0.23825941  0.19607981  0.95714371    -0.21400
C501        C  0.29791969  0.28344797  0.83994232    -0.21400
C502        C  0.31122488  0.29859695  0.85840930    -0.21400
C503        C  0.20154484  0.19863723  0.85388549    -0.22500
C504        C  0.21202063  0.21787856  0.83698732    -0.22500
C505        C  0.27192178  0.29931689  0.96048152    -0.22500
C506        C  0.28456397  0.31674756  0.94336937    -0.22500
C507        C  0.21611150  0.18656430  0.89557425    -0.17800
C508        C  0.25256607  0.24846122  0.96065790    -0.17800
C509        C  0.29694342  0.30993887  0.90020211    -0.17800
C510        C  0.25301599  0.25341675  0.83682550    -0.17800
H511        H  0.22379096  0.15523624  0.93994593     0.15100
H512        H  0.24252931  0.18909350  0.97537787     0.15100
H513        H  0.30424200  0.28381254  0.82122691     0.15100
H514        H  0.32938814  0.31351915  0.85667747     0.15100
H515        H  0.18539314  0.18174494  0.85088418     0.13400
H516        H  0.20554943  0.21881924  0.81830670     0.13400
H517        H  0.26714245  0.30573769  0.97880872     0.13400
H518        H  0.29144331  0.33925913  0.94600251     0.13400
H519        H  0.23275011  0.24236543  0.91333684     0.26600
H520        H  0.25522291  0.27155428  0.88483023     0.26600
N521        N  0.02921564  0.47235708  0.64179239    -0.36100
N522        N  0.48059926  0.50953748  0.64296522    -0.56700
N523        N  0.48349252  0.51236417  0.69613508    -0.36100
N524        N  0.03284353  0.47294240  0.69467510    -0.56700
C525        C  0.02102220  0.46989006  0.61844089     0.27500
C526        C  0.04934167  0.45146029  0.64606153     0.27500
C527        C  0.45540396  0.51943580  0.69210800     0.27500
C528        C  0.48555852  0.50426416  0.71942690     0.27500
C529        C  0.48431259  0.50991042  0.61890410     0.36100
C530        C  0.45885816  0.52833314  0.64810382     0.36100
C531        C  0.05944376  0.46233158  0.68914469     0.36100
C532        C  0.03440387  0.48220775  0.71777216     0.36100
C533        C  0.03633682  0.44677058  0.60792335    -0.21400
C534        C  0.05414276  0.43524109  0.62536020    -0.21400
C535        C  0.43973405  0.51677884  0.71331033    -0.21400
C536        C  0.45893772  0.50763957  0.73066686    -0.21400
C537        C  0.46468700  0.52946902  0.60867615    -0.22500
C538        C  0.44852939  0.54098485  0.62719124    -0.22500
C539        C  0.07772922  0.46445909  0.70895845    -0.22500
C540        C  0.06168101  0.47669377  0.72720558    -0.22500
C541        C  0.50240776  0.48988867  0.60622971    -0.17800
C542        C  0.06740071  0.45064380  0.66649362    -0.17800
C543        C  0.51102879  0.49418932  0.73074253    -0.17800
C544        C  0.44334398  0.52776566  0.66980468    -0.17800
H545        H  0.03610165  0.43938302  0.58947730     0.15100
H546        H  0.06998843  0.41787966  0.62280384     0.15100
H547        H  0.41680282  0.52091244  0.71604113     0.15100
H548        H  0.45370312  0.50314102  0.74923688     0.15100
H549        H  0.46069076  0.53364955  0.58986940     0.13400
H550        H  0.42991028  0.55539974  0.62537510     0.13400
H551        H  0.10028770  0.45792889  0.71024344     0.13400
H552        H  0.06930191  0.48140008  0.74522240     0.13400
H553        H  0.02553166  0.49017455  0.65311530     0.26600
H554        H  0.50058521  0.51429910  0.68403432     0.26600
N555        N  0.01973729  0.25302951  0.64274985    -0.36100
N556        N  0.46960615  0.28850597  0.64273036    -0.56700
N557        N  0.46452474  0.28024414  0.69513122    -0.36100
N558        N  0.01547395  0.24293367  0.69484237    -0.56700
C559        C  0.01492517  0.25371175  0.61872266     0.27500
C560        C  0.04091960  0.23319245  0.64682714     0.27500
C561        C  0.43734987  0.28865818  0.68901365     0.27500
C562        C  0.46260093  0.26644896  0.71659286     0.27500
C563        C  0.47653347  0.29215001  0.61934902     0.36100
C564        C  0.44747296  0.30691444  0.64764818     0.36100
C565        C  0.04381094  0.23682963  0.69121119     0.36100
C566        C  0.01270564  0.24823417  0.71862129     0.36100
C567        C  0.03372089  0.23390662  0.60755224    -0.21400
C568        C  0.05011757  0.22110976  0.62530216    -0.21400
C569        C  0.41807214  0.28020428  0.70692634    -0.21400
C570        C  0.43408685  0.26639293  0.72439073    -0.21400
C571        C  0.45869481  0.31349729  0.60935386    -0.22500
C572        C  0.44047020  0.32299564  0.62734742    -0.22500
C573        C  0.05893427  0.23767421  0.71279864    -0.22500
C574        C  0.03910024  0.24477386  0.73023189    -0.22500
C575        C  0.49611125  0.27364331  0.60667912    -0.17800
C576        C  0.05617274  0.23072020  0.66860910    -0.17800
C577        C  0.48632679  0.25544853  0.72985261    -0.17800
C578        C  0.42944365  0.30417066  0.66795941    -0.17800
H579        H  0.03692638  0.23009634  0.58857217     0.15100
H580        H  0.06794902  0.20588542  0.62261727     0.15100
H581        H  0.39480280  0.28352785  0.70745403     0.15100
H582        H  0.42569331  0.25715383  0.74085805     0.15100
H583        H  0.45765961  0.32064577  0.59089608     0.13400
H584        H  0.42265992  0.33837280  0.62527975     0.13400
H585        H  0.08188345  0.23388111  0.71572885     0.13400
H586        H  0.04368849  0.24765426  0.74917160     0.13400
H587        H  0.01289882  0.26831229  0.65545136     0.26600
H588        H  0.48359441  0.28590432  0.68622672     0.26600
N589        N  0.22944044  0.46404341  0.64112499    -0.36100
N590        N  0.28142391  0.49648471  0.64147772    -0.56700
N591        N  0.28021801  0.49703263  0.69426261    -0.36100
N592        N  0.22757210  0.46257305  0.69403264    -0.56700
C593        C  0.23639082  0.46187809  0.61756046     0.27500
C594        C  0.20844524  0.44420274  0.64552270     0.27500
C595        C  0.30843918  0.50316046  0.69002196     0.27500
C596        C  0.27814987  0.48906237  0.71758244     0.27500
C597        C  0.27616829  0.49843658  0.61765926     0.36100
C598        C  0.30509112  0.51291192  0.64601410     0.36100
C599        C  0.19978781  0.45591989  0.68845016     0.36100
C600        C  0.22713500  0.47308671  0.71680560     0.36100
C601        C  0.21966758  0.43989240  0.60699597    -0.21400
C602        C  0.20209396  0.42876316  0.62469253    -0.21400
C603        C  0.32441673  0.49929957  0.71097962    -0.21400
C604        C  0.30522830  0.49053646  0.72841042    -0.21400
C605        C  0.29689454  0.51621891  0.60696429    -0.22500
C606        C  0.31527008  0.52528561  0.62495091    -0.22500
C607        C  0.18177076  0.46175802  0.70788677    -0.22500
C608        C  0.19917940  0.47254959  0.72590303    -0.22500
C609        C  0.25513243  0.48145731  0.60531756    -0.17800
C610        C  0.19052331  0.44489964  0.66594835    -0.17800
C611        C  0.25201197  0.48232728  0.72954409    -0.17800
C612        C  0.32006385  0.51321087  0.66806542    -0.17800
H613        H  0.21891648  0.43310465  0.58839823     0.15100
H614        H  0.18519186  0.41250741  0.62220721     0.15100
H615        H  0.34748209  0.50275451  0.71356022     0.15100
H616        H  0.31058958  0.48578870  0.74693052     0.15100
H617        H  0.29968227  0.52095004  0.58809375     0.13400
H618        H  0.33458543  0.53852088  0.62266316     0.13400
H619        H  0.15846876  0.45896500  0.70894032     0.13400
H620        H  0.19202506  0.47967890  0.74350691     0.13400
H621        H  0.23440786  0.48153695  0.65248643     0.26600
H622        H  0.26290728  0.50087191  0.68263203     0.26600
N623        N  0.21639686  0.25807338  0.64487732    -0.36100
N624        N  0.26641724  0.29341283  0.64515571    -0.56700
N625        N  0.27027063  0.28741807  0.69815821    -0.36100
N626        N  0.21951587  0.25039957  0.69755395    -0.56700
C627        C  0.22162267  0.25832744  0.62087719     0.27500
C628        C  0.19517032  0.23837820  0.64887207     0.27500
C629        C  0.29768156  0.29520749  0.69228876     0.27500
C630        C  0.27141767  0.27514420  0.72030466     0.27500
C631        C  0.26011892  0.29646066  0.62157295     0.36100
C632        C  0.28846695  0.31177199  0.65018331     0.36100
C633        C  0.19184829  0.24194706  0.69352231     0.36100
C634        C  0.22174017  0.25520748  0.72148146     0.36100
C635        C  0.20288228  0.23862006  0.60962698    -0.21400
C636        C  0.18625474  0.22612259  0.62728407    -0.21400
C637        C  0.31628568  0.28797921  0.71109364    -0.21400
C638        C  0.29959825  0.27588417  0.72892403    -0.21400
C639        C  0.27815409  0.31749536  0.61156659    -0.22500
C640        C  0.29597317  0.32728242  0.62972920    -0.22500
C641        C  0.17669039  0.24069553  0.71504119    -0.22500
C642        C  0.19582251  0.24869843  0.73282360    -0.22500
C643        C  0.24113790  0.27750102  0.60882253    -0.17800
C644        C  0.18008765  0.23530013  0.67070482    -0.17800
C645        C  0.24738826  0.26421763  0.73314709    -0.17800
C646        C  0.30635634  0.30902079  0.67064053    -0.17800
H647        H  0.20002767  0.23459384  0.59062420     0.15100
H648        H  0.16860031  0.21078023  0.62448366     0.15100
H649        H  0.33955033  0.29101881  0.71204240     0.15100
H650        H  0.30746463  0.26796013  0.74604330     0.15100
H651        H  0.27961385  0.32424003  0.59303360     0.13400
H652        H  0.31389052  0.34245612  0.62772683     0.13400
H653        H  0.15420827  0.23464434  0.71772801     0.13400
H654        H  0.19106779  0.25001660  0.75183318     0.13400
H655        H  0.22330161  0.27323001  0.65759939     0.26600
H656        H  0.25156141  0.29230207  0.68842309     0.26600
C657        C  0.39835628  0.31099055  0.66474211    -0.05000
C658        C  0.38464350  0.33242392  0.67902642    -0.32400
C659        C  0.35423756  0.33361781  0.68012858     0.36800
C660        C  0.33777420  0.31327902  0.66676201    -0.05300
C661        C  0.35165456  0.29348339  0.65120522    -0.32300
C662        C  0.38170600  0.29227472  0.65007199     0.36800
H663        H  0.39746637  0.34680093  0.69040782     0.17100
O664        O  0.34078468  0.35359905  0.69497091    -0.59800
H665        H  0.33909435  0.27759859  0.64099857     0.17100
O666        O  0.39467032  0.27067662  0.63649180    -0.59900
H667        H  0.39445039  0.27820384  0.61979297     0.44100
H668        H  0.34472368  0.34677287  0.71156119     0.44100
C669        C  0.08799849  0.22939149  0.66694444    -0.05000
C670        C  0.10366947  0.20510644  0.67551976    -0.32400
C671        C  0.13404589  0.20607844  0.67634520     0.36800
C672        C  0.14848023  0.23157019  0.66868147    -0.05300
C673        C  0.13271729  0.25526259  0.65941800    -0.32300
C674        C  0.10269306  0.25436873  0.65858265     0.36800
H675        H  0.09231354  0.18596283  0.68214953     0.17100
O676        O  0.14931175  0.18272693  0.68544663    -0.59800
H677        H  0.14381598  0.27492146  0.65346064     0.17100
O678        O  0.08773898  0.27840975  0.65026142    -0.59900
H679        H  0.08345323  0.29047149  0.66473088     0.44100
H680        H  0.15648635  0.17176500  0.67119540     0.44100
C681        C  0.41155727  0.52617354  0.66754093    -0.05000
C682        C  0.39359656  0.04959788  0.67470264    -0.32400
C683        C  0.36338761  0.04603230  0.67464445     0.36800
C684        C  0.35142220  0.51901363  0.66712043    -0.05300
C685        C  0.36944430  0.49613492  0.65935721    -0.32300
C686        C  0.39935541  0.49955295  0.65953839     0.36800
H687        H  0.40303376  0.07006223  0.68092583     0.17100
O688        O  0.34578081  0.06866975  0.68203952    -0.59800
H689        H  0.36021632  0.47530393  0.65370873     0.17100
O690        O  0.41670385  0.47623999  0.65308107    -0.59900
H691        H  0.41881951  0.47769060  0.63540019     0.44100
H692        H  0.34315097  0.06568733  0.69953634     0.44100
C693        C  0.09838190  0.44414226  0.66225720    -0.05000
C694        C  0.11441899  0.96523421  0.64970522    -0.32400
C695        C  0.14452753  0.96419780  0.64949460     0.36800
C696        C  0.15902344  0.44168070  0.66182812    -0.05300
C697        C  0.14316121  0.41913954  0.67282983    -0.32300
C698        C  0.11272798  0.42018780  0.67293289     0.36800
H699        H  0.10346591  0.98369763  0.64137444     0.17100
O700        O  0.15959052  0.98641599  0.63853519    -0.59800
H701        H  0.15437436  0.40178897  0.68238071     0.17100
O702        O  0.09731775  0.39906054  0.68486484    -0.59900
H703        H  0.09389146  0.38333783  0.67278932     0.44100
H704        H  0.16302968  0.00130198  0.65130155     0.44100
C705        C  0.25209909  0.25616741  0.81020189    -0.05000
C706        C  0.23981120  0.28132169  0.79976103    -0.32400
C707        C  0.23840997  0.28417187  0.77471761     0.36800
C708        C  0.24933052  0.26168710  0.75976568    -0.05300
C709        C  0.26176841  0.23659749  0.77020525    -0.32300
C710        C  0.26322124  0.23377330  0.79526435     0.36800
H711        H  0.23112649  0.29866232  0.81109026     0.17100
O712        O  0.22573084  0.30868442  0.76496348    -0.59800
H713        H  0.27035350  0.21922028  0.75886869     0.17100
O714        O  0.27606226  0.20936913  0.80505672    -0.59900
H715        H  0.26031578  0.19462270  0.80628824     0.44100
H716        H  0.24198782  0.32246168  0.76200709     0.44100
C717        C  0.29769145  0.40342560  0.89425030    -0.05000
C718        C  0.32139704  0.38957643  0.90551705    -0.32400
C719        C  0.32271195  0.35875074  0.90664351     0.36800
C720        C  0.29999695  0.34195698  0.89664692    -0.05300
C721        C  0.27744894  0.35596146  0.88424140    -0.32300
C722        C  0.27612829  0.38632731  0.88304284     0.36800
H723        H  0.33802450  0.40264651  0.91425084     0.17100
O724        O  0.34524093  0.34539862  0.91852579    -0.59800
H725        H  0.25989191  0.34322010  0.87643548     0.17100
O726        O  0.25275786  0.39924280  0.87191369    -0.59900
H727        H  0.23812315  0.40223924  0.88475962     0.44100
H728        H  0.35798578  0.33734845  0.90572351     0.44100
C729        C  0.20901451  0.09304351  0.88966386    -0.05000
C730        C  0.18597467  0.10898499  0.90004325    -0.32400
C731        C  0.18702012  0.13981970  0.90114832     0.36800
C732        C  0.21115643  0.15472609  0.89166286    -0.05300
C733        C  0.23289170  0.13883936  0.87970805    -0.32300
C734        C  0.23207223  0.10829182  0.87879377     0.36800
H735        H  0.16815159  0.09745752  0.90847307     0.17100
O736        O  0.16535414  0.15503466  0.91267010    -0.59800
H737        H  0.25148469  0.15015781  0.87223331     0.17100
O738        O  0.25489974  0.09338890  0.86852953    -0.59900
H739        H  0.26881556  0.08984136  0.88183087     0.44100
H740        H  0.15201384  0.16153352  0.89972979     0.44100
C741        C  0.25120060  0.49191548  0.80676120    -0.05000
C742        C  0.24312640  0.46510258  0.79607757    -0.32400
C743        C  0.24311580  0.46168680  0.77103141     0.36800
C744        C  0.25085757  0.48546551  0.75623790    -0.05300
C745        C  0.25874124  0.01241277  0.76704423    -0.32300
C746        C  0.25914126  0.01562571  0.79208150     0.36800
H747        H  0.23735760  0.44658603  0.80726126     0.17100
O748        O  0.23699007  0.43467645  0.76118307    -0.59800
H749        H  0.26503678  0.03083509  0.75595374     0.17100
O750        O  0.26852163  0.04155367  0.80209308    -0.59900
H751        H  0.25253828  0.05581745  0.79940215     0.44100
H752        H  0.21587443  0.43170861  0.76372233     0.44100
C753        C  0.48233832  0.24912979  0.80696229    -0.05000
C754        C  0.98995273  0.22433398  0.79317106    -0.32400
C755        C  0.99028459  0.22571290  0.76803727     0.36800
C756        C  0.48368823  0.25241945  0.75641304    -0.05300
C757        C  0.47530231  0.27689747  0.77025224    -0.32300
C758        C  0.47419484  0.27525332  0.79529292     0.36800
H759        H  0.99592308  0.20398788  0.80195724     0.17100
O760        O  0.99659833  0.20087199  0.75491997    -0.59800
H761        H  0.46996738  0.29749429  0.76158536     0.17100
O762        O  0.46586852  0.29952848  0.80829522    -0.59900
H763        H  0.44478840  0.29685525  0.81125431     0.44100
H764        H  0.01728063  0.19632404  0.75835334     0.44100
C765        C  0.54703664  0.40051455  0.89237921    -0.05000
C766        C  0.52238625  0.38880661  0.88114376    -0.32400
C767        C  0.51747736  0.35875963  0.88101767     0.36800
C768        C  0.53763972  0.33975163  0.89190318    -0.05300
C769        C  0.06341731  0.35114911  0.90181837    -0.32300
C770        C  0.06823866  0.38161456  0.90204350     0.36800
H771        H  0.50592381  0.40327662  0.87374845     0.17100
O772        O  0.49209817  0.34822365  0.87129445    -0.59800
H773        H  0.07901569  0.33657899  0.91022318     0.17100
O774        O  0.09249561  0.39281792  0.91306445    -0.59900
H775        H  0.10817492  0.39110649  0.90093788     0.44100
H776        H  0.47853741  0.34635541  0.88502484     0.44100
C777        C  0.45989639  0.08794201  0.89148053    -0.05000
C778        C  0.98378214  0.10541263  0.88559860    -0.32400
C779        C  0.98131383  0.13578454  0.88543094     0.36800
C780        C  0.45462960  0.14909415  0.89111244    -0.05300
C781        C  0.43017498  0.13174171  0.89593853    -0.32300
C782        C  0.43268581  0.10100548  0.89591569     0.36800
H783        H  0.00475300  0.09539090  0.88204441     0.17100
O784        O  0.00541345  0.15248251  0.88062080    -0.59800
H785        H  0.40961320  0.14201658  0.90040403     0.17100
O786        O  0.40894376  0.08403482  0.90105697    -0.59900
H787        H  0.40090432  0.07819794  0.88520180     0.44100
H788        H  0.01553218  0.15479415  0.89626541     0.44100
C789        C  0.51431265  0.49539232  0.80785766    -0.05000
C790        C  0.52228543  0.02043034  0.79479968    -0.32400
C791        C  0.02126549  0.02029805  0.76967729     0.36800
C792        C  0.51247740  0.49473528  0.75733807    -0.05300
C793        C  0.50427592  0.46978188  0.77032967    -0.32300
C794        C  0.50487848  0.47008136  0.79547382     0.36800
H795        H  0.02937036  0.04016471  0.80417889     0.17100
O796        O  0.02873210  0.04512346  0.75727621    -0.59800
H797        H  0.49689541  0.45026342  0.76092441     0.17100
O798        O  0.49502252  0.44609953  0.80787599    -0.59900
H799        H  0.51087501  0.43136462  0.80686369     0.44100
H800        H  0.01054844  0.05679228  0.75615387     0.44100
C801        C  0.24758924  0.40520275  0.03244879    -0.05000
C802        C  0.27351466  0.38915527  0.02889428    -0.32400
C803        C  0.27422084  0.35803389  0.02954219     0.36800
C804        C  0.24869879  0.34154293  0.03401407    -0.05300
C805        C  0.22274866  0.35757750  0.03764361    -0.32300
C806        C  0.22204876  0.38872917  0.03703313     0.36800
H807        H  0.29355387  0.40078358  0.02534622     0.17100
O808        O  0.30019884  0.34403466  0.02558136    -0.59800
H809        H  0.20272381  0.34591859  0.04119688     0.17100
O810        O  0.19607800  0.40273698  0.04104875    -0.59900
H811        H  0.19524693  0.40592680  0.05867421     0.44100
H812        H  0.30168822  0.34203163  0.00787538     0.44100
C813        C  0.24777852  0.09153930  0.03266815    -0.05000
C814        C  0.27412642  0.10722062  0.03446476    -0.32400
C815        C  0.27487663  0.13832636  0.03546067     0.36800
C816        C  0.24896111  0.15518264  0.03418827    -0.05300
C817        C  0.22258789  0.13950469  0.03253478    -0.32300
C818        C  0.22179815  0.10837492  0.03200105     0.36800
H819        H  0.29449959  0.09530318  0.03531917     0.17100
O820        O  0.30132178  0.15191387  0.03759078    -0.59800
H821        H  0.20221507  0.15142438  0.03165685     0.17100
O822        O  0.19530533  0.09475773  0.03044672    -0.59900
H823        H  0.18803639  0.09391931  0.04719977     0.44100
H824        H  0.30517956  0.15289035  0.05511402     0.44100
C825        C  0.99896410  0.39988873  0.03125129    -0.05000
C826        C  0.47228258  0.38444658  0.03104782    -0.32400
C827        C  0.47110546  0.35337525  0.03077884     0.36800
C828        C  0.99696187  0.33625416  0.03096415    -0.05300
C829        C  0.02360789  0.35162778  0.03090086    -0.32300
C830        C  0.02477782  0.38278308  0.03107721     0.36800
H831        H  0.45198959  0.39654694  0.03106672     0.17100
O832        O  0.44438598  0.34011054  0.03058071    -0.59800
H833        H  0.04386440  0.33945552  0.03072471     0.17100
O834        O  0.05144575  0.39615790  0.03068876    -0.59900
H835        H  0.05813094  0.39629627  0.04763297     0.44100
H836        H  0.43941156  0.33767132  0.01334219     0.44100
C837        C  0.99652498  0.08623727  0.03001277    -0.05000
C838        C  0.96988019  0.10174960  0.02977803    -0.32400
C839        C  0.96870348  0.13290969  0.02935983     0.36800
C840        C  0.99449763  0.14993750  0.02959228    -0.05300
C841        C  0.02107776  0.13438257  0.02945105    -0.32300
C842        C  0.02226070  0.10328079  0.02942649     0.36800
H843        H  0.94962294  0.08967180  0.02987526     0.17100
O844        O  0.94201692  0.14635467  0.02891739    -0.59800
H845        H  0.04136765  0.14639627  0.02934012     0.17100
O846        O  0.04897123  0.08988091  0.02906553    -0.59900
H847        H  0.05460998  0.08920357  0.01187668     0.44100
H848        H  0.93733403  0.14871986  0.01163353     0.44100
C849        C  0.33875316  0.27007222  0.53456648    -0.05000
C850        C  0.35440748  0.29661986  0.53197060    -0.32400
C851        C  0.38534881  0.29744643  0.53102171     0.36800
C852        C  0.40229793  0.27139400  0.53283614    -0.05300
C853        C  0.38662553  0.24483338  0.53520390    -0.32300
C854        C  0.35569809  0.24397184  0.53585932     0.36800
H855        H  0.34258141  0.31713959  0.53047034     0.17100
O856        O  0.39867060  0.32402962  0.52763851    -0.59800
H857        H  0.39843046  0.22428229  0.53651670     0.17100
O858        O  0.34237233  0.21718415  0.53789040    -0.59900
H859        H  0.33984095  0.21007552  0.52113807     0.44100
H860        H  0.39940320  0.33332170  0.54377381     0.44100
C861        C  0.08873361  0.26984338  0.53223106    -0.05000
C862        C  0.10489125  0.29567122  0.52779025    -0.32400
C863        C  0.13585575  0.29596378  0.52764503     0.36800
C864        C  0.15235464  0.27015738  0.53239735    -0.05300
C865        C  0.13619600  0.24425378  0.53655881    -0.32300
C866        C  0.10522574  0.24391136  0.53651219     0.36800
H867        H  0.09344719  0.31601551  0.52421022     0.17100
O868        O  0.14967307  0.32194112  0.52284491    -0.59800
H869        H  0.14763883  0.22389435  0.54008027     0.17100
O870        O  0.09139547  0.21777388  0.54068053    -0.59900
H871        H  0.08915444  0.21677202  0.55837176     0.44100
H872        H  0.15175454  0.32237295  0.50511943     0.44100
C873        C  0.40809135  0.49172592  0.53139177    -0.05000
C874        C  0.39237883  0.46525373  0.52850945    -0.32400
C875        C  0.36147483  0.46435846  0.52813116     0.36800
C876        C  0.34447283  0.49029609  0.53071159    -0.05300
C877        C  0.36011627  0.01688779  0.53362557    -0.32300
C878        C  0.39112858  0.01773757  0.53410597     0.36800
H879        H  0.40414895  0.44475821  0.52645016     0.17100
O880        O  0.34820386  0.43758758  0.52548535    -0.59800
H881        H  0.34827084  0.03733585  0.53572876     0.17100
O882        O  0.40454530  0.04434955  0.53729592    -0.59900
H883        H  0.40534822  0.04733842  0.55494929     0.44100
H884        H  0.34715021  0.43418407  0.50789765     0.44100
C885        C  0.09452597  0.48852597  0.53232920    -0.05000
C886        C  0.11032964  0.46179326  0.53171281    -0.32400
C887        C  0.14131730  0.46092163  0.53187191     0.36800
C888        C  0.15809124  0.48711539  0.53265629    -0.05300
C889        C  0.14219869  0.01371482  0.53341896    -0.32300
C890        C  0.11130053  0.01459991  0.53311379     0.36800
H891        H  0.09860316  0.44119002  0.53105387     0.17100
O892        O  0.15487230  0.43408038  0.53096860    -0.59800
H893        H  0.15384439  0.03436553  0.53405965     0.17100
O894        O  0.09785910  0.04151471  0.53378974    -0.59900
H895        H  0.09626230  0.04763929  0.51676368     0.50500
H896        H  0.15697259  0.42798878  0.54796590     0.44100
C897        C  0.40405285  0.21675880  0.40100169    -0.05000
C898        C  0.38933467  0.24208982  0.40852781    -0.32400
C899        C  0.35930469  0.24248523  0.40961525     0.36800
C900        C  0.34356259  0.21733549  0.40294157    -0.05300
C901        C  0.35816427  0.19149683  0.39607936    -0.32300
C902        C  0.38857561  0.19112522  0.39508592     0.36800
H903        H  0.40127759  0.26193426  0.41291571     0.17100
O904        O  0.34531862  0.26809137  0.41582297    -0.59800
H905        H  0.34598033  0.17212591  0.39088917     0.17100
O906        O  0.40291284  0.16602885  0.38815975    -0.59900
H907        H  0.40506979  0.16760768  0.37049021     0.44100
H908        H  0.34541338  0.26851347  0.43364149     0.44100
C909        C  0.08913740  0.29958164  0.39827598    -0.05000
C910        C  0.10674517  0.32098110  0.38759767    -0.32400
C911        C  0.13698804  0.31754864  0.38773124     0.36800
C912        C  0.14934447  0.29279664  0.39882397    -0.05300
C913        C  0.13178216  0.27264607  0.41081869    -0.32300
C914        C  0.10184658  0.27588464  0.41062947     0.36800
H915        H  0.09699767  0.33926676  0.37811698     0.17100
O916        O  0.15423775  0.33783882  0.37655827    -0.59800
H917        H  0.14132456  0.25357318  0.41940533     0.17100
O918        O  0.08499811  0.25441753  0.42078035    -0.59900
H919        H  0.08330662  0.26002138  0.43796836     0.44100
H920        H  0.15439963  0.33197200  0.35937113     0.44100
C921        C  0.40349553  0.02812174  0.39998308    -0.05000
C922        C  0.39036293  0.05469563  0.39333056    -0.32400
C923        C  0.36005146  0.05713821  0.39334994     0.36800
C924        C  0.34326796  0.53270916  0.39996344    -0.05300
C925        C  0.35659794  0.50666792  0.40753716    -0.32300
C926        C  0.38658628  0.50425601  0.40769142     0.36800
H927        H  0.40353373  0.07300405  0.38745784     0.17100
O928        O  0.34702067  0.08291684  0.38651911    -0.59800
H929        H  0.34357618  0.48779025  0.41243814     0.17100
O930        O  0.39923140  0.47799924  0.41387176    -0.59900
H931        H  0.40367592  0.47983365  0.43125660     0.44100
H932        H  0.34748370  0.08272889  0.36870898     0.44100
C933        C  0.15553132  0.45132655  0.39674404    -0.05000
C934        C  0.14007342  0.97351903  0.40858368    -0.32400
C935        C  0.11000821  0.97359767  0.40850341     0.36800
C936        C  0.09488775  0.95102599  0.39657609    -0.05300
C937        C  0.11014748  0.42771346  0.38599202    -0.32300
C938        C  0.14060847  0.42769672  0.38604179     0.36800
H939        H  0.15148105  0.99182456  0.41681193     0.17100
O940        O  0.09549018  0.99699846  0.41855673    -0.59800
H941        H  0.09845463  0.41010456  0.37709113     0.17100
O942        O  0.15562473  0.40516905  0.37522853    -0.59900
H943        H  0.15278846  0.40791087  0.35772359     0.44100
H944        H  0.09506652  0.99295652  0.43604912     0.44100
C945        C  0.24453935  0.24557595  0.25936840    -0.05000
C946        C  0.25340186  0.27043724  0.27246987    -0.32400
C947        C  0.25366944  0.27015289  0.29763021     0.36800
C948        C  0.24490851  0.24482771  0.31007468    -0.05300
C949        C  0.23631217  0.21983615  0.29705071    -0.32300
C950        C  0.23603215  0.22010979  0.27184682     0.36800
H951        H  0.26019887  0.29007817  0.26311100     0.17100
O952        O  0.26226271  0.29481099  0.30998069    -0.59800
H953        H  0.22960427  0.20021255  0.30647533     0.17100
O954        O  0.22750227  0.19539945  0.25953425    -0.59900
H955        H  0.20631841  0.19787129  0.25694437     0.44100
H956        H  0.28363978  0.29285622  0.31170568     0.44100
C957        C  0.20634945  0.40463685  0.17183333    -0.05000
C958        C  0.18436117  0.38926995  0.15961767    -0.32400
C959        C  0.18315836  0.35849328  0.16085245     0.36800
C960        C  0.20401719  0.34321069  0.17452657    -0.05300
C961        C  0.22441691  0.35886052  0.18811455    -0.32300
C962        C  0.22575235  0.38928301  0.18684041     0.36800
H963        H  0.16913407  0.40099561  0.14828908     0.17100
O964        O  0.16250998  0.34342212  0.14796697    -0.59800
H965        H  0.24075487  0.34726850  0.19847357     0.17100
O966        O  0.24773532  0.40368301  0.19869901    -0.59900
H967        H  0.24159088  0.40448412  0.21576773     0.44100
H968        H  0.16875621  0.34456322  0.13095361     0.44100
C969        C  0.29426544  0.09278278  0.17214884    -0.05000
C970        C  0.31609186  0.10870228  0.16034394    -0.32400
C971        C  0.31580488  0.13957101  0.16095435     0.36800
C972        C  0.29372150  0.15433861  0.17371229    -0.05300
C973        C  0.27371153  0.13826340  0.18717074    -0.32300
C974        C  0.27378481  0.10780902  0.18645832     0.36800
H975        H  0.33219216  0.09727578  0.14959776     0.17100
O976        O  0.33626012  0.15512484  0.14841658    -0.59800
H977        H  0.25652861  0.14944017  0.19693802     0.17100
O978        O  0.25193542  0.09297788  0.19794291    -0.59900
H979        H  0.25769530  0.09265369  0.21511700     0.44100
H980        H  0.33118759  0.15249138  0.13122290     0.44100
C981        C  0.24914462  0.49754957  0.30611002    -0.05000
C982        C  0.24383977  0.02417741  0.29411333    -0.32400
C983        C  0.24382808  0.02512624  0.26896079     0.36800
C984        C  0.24932027  0.49926908  0.25554760    -0.05300
C985        C  0.25500285  0.47283791  0.26764450    -0.32300
C986        C  0.25469896  0.47182345  0.29276235     0.36800
H987        H  0.23957445  0.04408936  0.30428354     0.17100
O988        O  0.23766209  0.05108479  0.25756523    -0.59800
H989        H  0.25948164  0.45292599  0.25752768     0.17100
O990        O  0.26042149  0.44578203  0.30416114    -0.59900
H991        H  0.24131418  0.43589742  0.30558351     0.44100
H992        H  0.25523159  0.06343123  0.25969265     0.44100
C993        C  0.49673784  0.25191321  0.30618745    -0.05000
C994        C  0.99917283  0.27791788  0.29271875    -0.32400
C995        C  0.99824856  0.27711612  0.26753252     0.36800
C996        C  0.49464280  0.25008061  0.25537769    -0.05300
C997        C  0.49177589  0.22422335  0.26886825    -0.32300
C998        C  0.49314463  0.22493936  0.29401517     0.36800
H999        H  0.00191623  0.29885462  0.30180027     0.17100
O1000       O  0.00199878  0.30265605  0.25489478    -0.59800
H1001       H  0.48893343  0.20328470  0.25981200     0.17100
O1002       O  0.49209094  0.19907879  0.30656947    -0.59900
H1003       H  0.47166474  0.19231849  0.30534983     0.44100
H1004       H  0.98367421  0.31387199  0.25698803     0.44100
C1005       C  0.44825859  0.33836394  0.16939195    -0.05000
C1006       C  0.96999792  0.35306402  0.18227894    -0.32400
C1007       C  0.97144757  0.38348024  0.18217876     0.36800
C1008       C  0.45062223  0.39978463  0.16943228    -0.05300
C1009       C  0.42749119  0.38532595  0.15791968    -0.32300
C1010       C  0.42621537  0.35453794  0.15786618     0.36800
H1011       H  0.98715021  0.34077786  0.19110084     0.17100
O1012       O  0.99444291  0.39706150  0.19334599    -0.59800
H1013       H  0.41143814  0.39783759  0.14801924     0.17100
O1014       O  0.40473793  0.34050573  0.14516908    -0.59900
H1015       H  0.39098906  0.33320719  0.15746316     0.44100
H1016       H  0.00953638  0.39905804  0.18075953     0.44100
C1017       C  0.53694533  0.15146380  0.17253282    -0.05000
C1018       C  0.51479437  0.13624972  0.18427921    -0.32400
C1019       C  0.51423617  0.10576599  0.18396683     0.36800
C1020       C  0.53637562  0.08998120  0.17213471    -0.05300
C1021       C  0.05976552  0.10511238  0.16173457    -0.32300
C1022       C  0.06013114  0.13592204  0.16192045     0.36800
H1023       H  0.49682919  0.14813357  0.19238323     0.17100
O1024       O  0.49108212  0.09153395  0.19415242    -0.59800
H1025       H  0.07685921  0.09307494  0.15260732     0.17100
O1026       O  0.08202677  0.15059371  0.15041305    -0.59900
H1027       H  0.09441145  0.15873140  0.16342643     0.44100
H1028       H  0.47676856  0.08899904  0.18096871     0.44100
C1029       C  0.49533967  0.98879832  0.30599743    -0.05000
C1030       C  0.48713083  0.01513733  0.29472955    -0.32400
C1031       C  0.48570160  0.01696875  0.26966631     0.36800
C1032       C  0.49335305  0.99250447  0.25543125    -0.05300
C1033       C  0.00096496  0.46616150  0.26658979    -0.32300
C1034       C  0.00179386  0.46409991  0.29168004     0.36800
H1035       H  0.48174920  0.03432663  0.30545599     0.17100
O1036       O  0.47700487  0.04278008  0.25921370    -0.59800
H1037       H  0.00632740  0.44702111  0.25579347     0.17100
O1038       O  0.00793445  0.43754662  0.30214874    -0.59900
H1039       H  0.02883398  0.43388608  0.29896371     0.44100
H1040       H  0.45564783  0.04098036  0.25732510     0.44100
N1041       N  0.01556187  0.51943191  0.14094075    -0.36100
N1042       N  0.97681952  0.96865583  0.13988414    -0.56700
N1043       N  0.47664521  0.96902635  0.19222368    -0.36100
N1044       N  0.51200034  0.51978404  0.19357455    -0.56700
C1045       C  0.00753879  0.51866231  0.11754895     0.27500
C1046       C  0.02338360  0.54743131  0.14607336     0.27500
C1047       C  0.45604038  0.94894902  0.18714728     0.27500
C1048       C  0.47386579  0.97625751  0.21568932     0.27500
C1049       C  0.98596318  0.96883858  0.11684056     0.36100
C1050       C  0.96707459  0.94115662  0.14406185     0.36100
C1051       C  0.53169699  0.54108012  0.18986106     0.36100
C1052       C  0.51295423  0.51341542  0.21721186     0.36100
C1053       C  0.01134778  0.54612176  0.10739836    -0.21400
C1054       C  0.02096460  0.56440938  0.12547650    -0.21400
C1055       C  0.43972107  0.94337150  0.20751712    -0.21400
C1056       C  0.45081041  0.96088635  0.22554977    -0.21400
C1057       C  0.98128919  0.94171627  0.10611540    -0.22500
C1058       C  0.96965288  0.92400458  0.12348142    -0.22500
C1059       C  0.54531018  0.54847174  0.21127386    -0.22500
C1060       C  0.53372704  0.53057591  0.22860657    -0.22500
C1061       C  0.99741861  0.99357831  0.10513861    -0.17800
C1062       C  0.03270284  0.55798149  0.16880205    -0.17800
C1063       C  0.49335867  0.49424459  0.22869790    -0.17800
C1064       C  0.45579787  0.93149331  0.16623792    -0.17800
H1065       H  0.00694424  0.55249662  0.08903492     0.15100
H1066       H  0.02551943  0.58759885  0.12356309     0.15100
H1067       H  0.42255043  0.92731973  0.20938913     0.15100
H1068       H  0.44353285  0.96131019  0.24402713     0.15100
H1069       H  0.98625747  0.93523365  0.08783604     0.13400
H1070       H  0.96384269  0.90114163  0.12112723     0.13400
H1071       H  0.56107379  0.56576461  0.21417607     0.13400
H1072       H  0.53913036  0.53104780  0.24752766     0.13400
H1073       H  0.01729072  0.50140412  0.15228739     0.26600
H1074       H  0.49453862  0.97327401  0.18141761     0.26600
N1075       N  0.01368822  0.72007035  0.14054547    -0.36100
N1076       N  0.97350774  0.76926965  0.13917843    -0.56700
N1077       N  0.47599612  0.77134102  0.19191432    -0.36100
N1078       N  0.51254941  0.72214000  0.19337832    -0.56700
C1079       C  0.00452000  0.71951917  0.11744817     0.27500
C1080       C  0.02137166  0.69230405  0.14630765     0.27500
C1081       C  0.45352300  0.78911461  0.18648923     0.27500
C1082       C  0.47368769  0.76437993  0.21543476     0.27500
C1083       C  0.98300917  0.76901013  0.11621233     0.36100
C1084       C  0.96379771  0.79682368  0.14348619     0.36100
C1085       C  0.53257203  0.70113720  0.18935486     0.36100
C1086       C  0.51491363  0.72993682  0.21672354     0.36100
C1087       C  0.00700935  0.69136129  0.10814999    -0.21400
C1088       C  0.01725265  0.67402325  0.12649698    -0.21400
C1089       C  0.43648821  0.79353756  0.20669842    -0.21400
C1090       C  0.44901587  0.77751610  0.22497385    -0.21400
C1091       C  0.97865407  0.79614198  0.10564685    -0.22500
C1092       C  0.96684393  0.81397101  0.12307029    -0.22500
C1093       C  0.54798957  0.69545835  0.21021912    -0.22500
C1094       C  0.53717879  0.71418884  0.22752365    -0.22500
C1095       C  0.99459637  0.74410345  0.10458322    -0.17800
C1096       C  0.53263647  0.68319493  0.16875574    -0.17800
C1097       C  0.49478714  0.74847051  0.22858153    -0.17800
C1098       C  0.45245335  0.80647865  0.16569853    -0.17800
H1099       H  0.00144427  0.68399435  0.09020217     0.15100
H1100       H  0.02130256  0.65062770  0.12525547     0.15100
H1101       H  0.41782571  0.80794203  0.20829318     0.15100
H1102       H  0.44152138  0.77664610  0.24337393     0.15100
H1103       H  0.98402669  0.80255379  0.08748814     0.13400
H1104       H  0.96131018  0.83692060  0.12087130     0.13400
H1105       H  0.56451600  0.67880075  0.21282635     0.13400
H1106       H  0.54404672  0.71506014  0.24610770     0.13400
H1107       H  0.51661517  0.73877786  0.15115799     0.26600
H1108       H  0.49433663  0.76860193  0.18120059     0.26600
N1109       N  0.23075106  0.97372158  0.14053691    -0.36100
N1110       N  0.27053769  0.52367360  0.14051909    -0.56700
N1111       N  0.26743055  0.52424030  0.19295911    -0.36100
N1112       N  0.23063314  0.97494166  0.19303701    -0.56700
C1113       C  0.24024452  0.97375111  0.11756544     0.27500
C1114       C  0.22251468  0.94591082  0.14568498     0.27500
C1115       C  0.28923351  0.54304545  0.18834038     0.27500
C1116       C  0.26954748  0.51659027  0.21634099     0.27500
C1117       C  0.26223116  0.52332683  0.11720672     0.36100
C1118       C  0.28007021  0.55122964  0.14517042     0.36100
C1119       C  0.21024211  0.95457431  0.18844326     0.36100
C1120       C  0.22834860  0.98195703  0.21651050     0.36100
C1121       C  0.23732416  0.94590477  0.10767805    -0.21400
C1122       C  0.22658295  0.92816825  0.12556509    -0.21400
C1123       C  0.30559939  0.54750602  0.20895339    -0.21400
C1124       C  0.29339975  0.53039787  0.22662132    -0.21400
C1125       C  0.26743225  0.55036684  0.10674925    -0.22500
C1126       C  0.27832691  0.56823007  0.12457491    -0.22500
C1127       C  0.19453298  0.94869809  0.20909927    -0.22500
C1128       C  0.20585569  0.96633507  0.22691571    -0.22500
C1129       C  0.25055962  0.99861683  0.10522833    -0.17800
C1130       C  0.21089530  0.93650215  0.16792180    -0.17800
C1131       C  0.24867194  0.99963769  0.22883165    -0.17800
C1132       C  0.29013146  0.56098287  0.16787789    -0.17800
H1133       H  0.24287807  0.93898535  0.08961785     0.15100
H1134       H  0.22213692  0.90491937  0.12377830     0.15100
H1135       H  0.32351683  0.56264863  0.21123605     0.15100
H1136       H  0.30045534  0.52934314  0.24515202     0.15100
H1137       H  0.26311844  0.55676435  0.08837834     0.13400
H1138       H  0.28409386  0.59110367  0.12248396     0.13400
H1139       H  0.17787179  0.93217667  0.21133352     0.13400
H1140       H  0.19924447  0.96653308  0.24556175     0.13400
H1141       H  0.22805198  0.99220766  0.15140428     0.26600
H1142       H  0.24944691  0.52122197  0.18187113     0.26600
N1143       N  0.22736603  0.77318714  0.14412528    -0.36100
N1144       N  0.22743733  0.77231932  0.19691870    -0.56700
N1145       N  0.26360841  0.72223710  0.19637320    -0.36100
N1146       N  0.26644890  0.72290790  0.14377084    -0.56700
C1147       C  0.22080840  0.80139040  0.14963102     0.27500
C1148       C  0.23751035  0.77295146  0.12131114     0.27500
C1149       C  0.26501877  0.72913023  0.22002041     0.27500
C1150       C  0.28541097  0.70323635  0.19168474     0.27500
C1151       C  0.20839888  0.79418244  0.19265151     0.36100
C1152       C  0.22522264  0.76564763  0.22045779     0.36100
C1153       C  0.25697002  0.72273852  0.12076784     0.36100
C1154       C  0.27551035  0.69526238  0.14839776     0.36100
C1155       C  0.22698248  0.81914426  0.12999916    -0.21400
C1156       C  0.23700962  0.80104858  0.11197686    -0.21400
C1157       C  0.28833802  0.71459352  0.23043602    -0.21400
C1158       C  0.30112140  0.69805503  0.21252145    -0.21400
C1159       C  0.19368219  0.80141588  0.21359309    -0.22500
C1160       C  0.20412927  0.78305221  0.23121209    -0.22500
C1161       C  0.26044715  0.69519503  0.11054654    -0.22500
C1162       C  0.27178810  0.67758492  0.12819704    -0.22500
C1163       C  0.20879379  0.81135810  0.17165321    -0.17800
C1164       C  0.24662068  0.74772521  0.10872345    -0.17800
C1165       C  0.28718516  0.68601213  0.17062842    -0.17800
C1166       C  0.24442410  0.74646065  0.23256436    -0.17800
H1167       H  0.22463267  0.84274014  0.12865392     0.15100
H1168       H  0.24385068  0.80787024  0.09426303     0.15100
H1169       H  0.29481404  0.71501930  0.24913532     0.15100
H1170       H  0.31900406  0.68280483  0.21475566     0.15100
H1171       H  0.17806543  0.81899568  0.21608698     0.13400
H1172       H  0.19793142  0.78347162  0.24995744     0.13400
H1173       H  0.25487547  0.68842458  0.09244816     0.13400
H1174       H  0.27648848  0.65438721  0.12629546     0.13400
H1175       H  0.22313473  0.75477045  0.15461288     0.26600
H1176       H  0.24610480  0.72609954  0.18496828     0.26600
N1177       N  0.02586622  0.47366466  0.42049320    -0.36100
N1178       N  0.02401976  0.47027529  0.36734984    -0.56700
N1179       N  0.47209672  0.50546263  0.36894274    -0.36100
N1180       N  0.47497504  0.50748837  0.42196778    -0.56700
C1181       C  0.04707394  0.45419426  0.41534225     0.27500
C1182       C  0.02053885  0.47211957  0.44442921     0.27500
C1183       C  0.47181504  0.49534178  0.34603107     0.27500
C1184       C  0.44431454  0.51159912  0.37486941     0.27500
C1185       C  0.05216887  0.46378122  0.37158032     0.36100
C1186       C  0.02253395  0.47910090  0.34421441     0.36100
C1187       C  0.48115572  0.50937184  0.44564506     0.36100
C1188       C  0.45180263  0.52481793  0.41798109     0.36100
C1189       C  0.05553945  0.43990787  0.43612550    -0.21400
C1190       C  0.03888340  0.45119038  0.45448771    -0.21400
C1191       C  0.44371936  0.49543841  0.33714155    -0.21400
C1192       C  0.42626790  0.50553922  0.35540917    -0.21400
C1193       C  0.06850527  0.46799967  0.35092244    -0.22500
C1194       C  0.04961642  0.47759882  0.33351676    -0.22500
C1195       C  0.46169950  0.52844830  0.45676048    -0.22500
C1196       C  0.44316063  0.53822500  0.43920034    -0.22500
C1197       C  0.06324926  0.45419179  0.39388052    -0.17800
C1198       C  0.50149364  0.49098890  0.45743586    -0.17800
C1199       C  0.43482316  0.52345814  0.39702227    -0.17800
C1200       C  0.49666368  0.48759868  0.33268906    -0.17800
H1201       H  0.07322204  0.42435270  0.43806025     0.15100
H1202       H  0.04143188  0.44549317  0.47318531     0.15100
H1203       H  0.43656460  0.48879510  0.31939763     0.15100
H1204       H  0.40293305  0.50834752  0.35436108     0.15100
H1205       H  0.09164786  0.46480534  0.34863429     0.13400
H1206       H  0.05522814  0.48330252  0.31525132     0.13400
H1207       H  0.45960999  0.53362085  0.47563855     0.13400
H1208       H  0.42431814  0.55211185  0.44199393     0.13400
H1209       H  0.01952281  0.49030249  0.40891613     0.26600
H1210       H  0.49043610  0.51047340  0.37912504     0.26600
N1211       N  0.02000960  0.78065060  0.42055860    -0.36100
N1212       N  0.47304588  0.74182597  0.42304651    -0.56700
N1213       N  0.47340862  0.73582371  0.36970202    -0.36100
N1214       N  0.02110327  0.77696250  0.36736761    -0.56700
C1215       C  0.01320850  0.78492150  0.44403257     0.27500
C1216       C  0.03994535  0.80088063  0.41448156     0.27500
C1217       C  0.44609306  0.72732156  0.37519158     0.27500
C1218       C  0.47333705  0.74306471  0.34608582     0.27500
C1219       C  0.47713044  0.74453624  0.44701651     0.36100
C1220       C  0.45171302  0.72206474  0.41970840     0.36100
C1221       C  0.04824669  0.78676954  0.37184714     0.36100
C1222       C  0.02150258  0.76626485  0.34464550     0.36100
C1223       C  0.02917613  0.80861188  0.45278399    -0.21400
C1224       C  0.04610851  0.81850348  0.43414812    -0.21400
C1225       C  0.42885809  0.72836258  0.35467873    -0.21400
C1226       C  0.44610746  0.73814332  0.33632058    -0.21400
C1227       C  0.45804954  0.72609132  0.45900192    -0.22500
C1228       C  0.44209982  0.71185268  0.44171426    -0.22500
C1229       C  0.06566120  0.78285529  0.35170809    -0.22500
C1230       C  0.04851920  0.77024641  0.33433914    -0.22500
C1231       C  0.49537674  0.76592554  0.45794074    -0.17800
C1232       C  0.05769648  0.79861198  0.39402481    -0.17800
C1233       C  0.49743908  0.75351229  0.33304640    -0.17800
C1234       C  0.43587679  0.71917929  0.39818825    -0.17800
H1235       H  0.03011055  0.81719152  0.47087940     0.15100
H1236       H  0.06250940  0.83548384  0.43529413     0.15100
H1237       H  0.40604717  0.72294290  0.35307479     0.15100
H1238       H  0.43920633  0.74182149  0.31798163     0.15100
H1239       H  0.45425230  0.72429510  0.47808320     0.13400
H1240       H  0.42392909  0.69733350  0.44497760     0.13400
H1241       H  0.08838982  0.78829496  0.34967139     0.13400
H1242       H  0.05536470  0.76389517  0.31645350     0.13400
H1243       H  0.01600925  0.76198151  0.41030815     0.26600
H1244       H  0.49135617  0.73517050  0.38105003     0.26600
N1245       N  0.22352048  0.97703004  0.42067328    -0.36100
N1246       N  0.27244540  0.01403127  0.42211555    -0.56700
N1247       N  0.27341555  0.01557484  0.36887482    -0.36100
N1248       N  0.22407051  0.97621715  0.36755753    -0.56700
C1249       C  0.22961799  0.97501264  0.44446096     0.27500
C1250       C  0.20332938  0.95656529  0.41542852     0.27500
C1251       C  0.30095028  0.02356425  0.37412658     0.27500
C1252       C  0.27298707  0.00773257  0.34538020     0.27500
C1253       C  0.26756422  0.01384577  0.44603880     0.36100
C1254       C  0.29531676  0.03175709  0.41835806     0.36100
C1255       C  0.19685155  0.96658956  0.37180011     0.36100
C1256       C  0.22425248  0.98535004  0.34447658     0.36100
C1257       C  0.21268477  0.95282394  0.45432209    -0.21400
C1258       C  0.19621338  0.94123562  0.43599507    -0.21400
C1259       C  0.31786671  0.02172755  0.35348582    -0.21400
C1260       C  0.30006969  0.01211452  0.33527457    -0.21400
C1261       C  0.28745945  0.03207409  0.45752573    -0.22500
C1262       C  0.30502006  0.04331638  0.43997908    -0.22500
C1263       C  0.17996240  0.96915683  0.35120162    -0.22500
C1264       C  0.19752887  0.98062898  0.33377044    -0.22500
C1265       C  0.24828119  0.99422293  0.45757562    -0.17800
C1266       C  0.18693530  0.95576423  0.39405310    -0.17800
C1267       C  0.24860036  0.99712875  0.33278207    -0.17800
C1268       C  0.31154786  0.03205575  0.39699450    -0.17800
H1269       H  0.21092171  0.94627754  0.47287777     0.15100
H1270       H  0.17962897  0.92454893  0.43781603     0.15100
H1271       H  0.34074726  0.02667144  0.35166816     0.15100
H1272       H  0.30651387  0.00806512  0.31685688     0.15100
H1273       H  0.29063548  0.03555538  0.47655804     0.13400
H1274       H  0.32400025  0.05690221  0.44290913     0.13400
H1275       H  0.15726993  0.96364965  0.34891333     0.13400
H1276       H  0.19118925  0.98564188  0.31550764     0.13400
H1277       H  0.22874133  0.99427170  0.40936129     0.26600
H1278       H  0.25558580  0.01692379  0.38027705     0.26600
N1279       N  0.21976776  0.77097235  0.42390244    -0.36100
N1280       N  0.21832370  0.76464510  0.37131221    -0.56700
N1281       N  0.27192368  0.73179512  0.37319910    -0.36100
N1282       N  0.27295208  0.73971885  0.42614164    -0.56700
C1283       C  0.19696796  0.78821291  0.41823280     0.27500
C1284       C  0.22644042  0.77627166  0.44723169     0.27500
C1285       C  0.27015517  0.73767445  0.34937978     0.27500
C1286       C  0.30017541  0.72650778  0.37821537     0.27500
C1287       C  0.19063063  0.77301669  0.37541892     0.36100
C1288       C  0.21905413  0.75425438  0.34852930     0.36100
C1289       C  0.26858144  0.74214424  0.45009051     0.36100
C1290       C  0.29684168  0.72300788  0.42305580     0.36100
C1291       C  0.18887519  0.80480191  0.43805839    -0.21400
C1292       C  0.20735569  0.79724838  0.45638486    -0.21400
C1293       C  0.29733211  0.73491990  0.33897365    -0.21400
C1294       C  0.31634211  0.72815572  0.35717851    -0.21400
C1295       C  0.17377724  0.76813022  0.35508322    -0.22500
C1296       C  0.19194158  0.75659405  0.33791500    -0.22500
C1297       C  0.28998082  0.72672344  0.46233447    -0.22500
C1298       C  0.30785723  0.71462568  0.44520115    -0.22500
C1299       C  0.18054033  0.78596738  0.39695861    -0.17800
C1300       C  0.24746230  0.76070350  0.46083683    -0.17800
C1301       C  0.31195580  0.72019028  0.40114490    -0.17800
C1302       C  0.24448394  0.74483221  0.33676256    -0.17800
H1303       H  0.17067641  0.81983582  0.43945843     0.15100
H1304       H  0.20575364  0.80560542  0.47452981     0.15100
H1305       H  0.30299360  0.73790656  0.32028313     0.15100
H1306       H  0.33951623  0.72494628  0.35508630     0.15100
H1307       H  0.15085906  0.77270181  0.35273153     0.13400
H1308       H  0.18588709  0.75053128  0.31976400     0.13400
H1309       H  0.29342595  0.72546685  0.48152447     0.13400
H1310       H  0.32761922  0.70237679  0.44864030     0.13400
H1311       H  0.22692481  0.75348159  0.41344994     0.26600
H1312       H  0.25463909  0.72951826  0.38505363     0.26600
O1313       O  0.50231900  0.51422768  0.56814224    -0.72500
O1314       O  0.50231953  0.51481740  0.49596442    -0.73400
O1315       O  0.45646487  0.51546608  0.53204122    -0.62100
O1316       O  0.04701277  0.51344929  0.53220438    -0.70500
O1317       O  0.04619600  0.96490178  0.53186968    -0.70000
O1318       O  0.45559724  0.96699208  0.53123348    -0.61300
O1319       O  0.50092309  0.96616985  0.49542304    -0.73800
O1320       O  0.50032673  0.96561253  0.56771055    -0.72600
Cu1321     Cu  0.50199232  0.51611003  0.53209170     1.04600
Cu1322     Cu  0.50073848  0.96427634  0.53154184     1.04300
C1323       C  0.50158458  0.98980777  0.57940955     0.93700
C1324       C  0.50174042  0.99060477  0.48423566     0.92900
C1325       C  0.44158130  0.99149722  0.53159904     0.85000
C1326       C  0.06100871  0.98889218  0.53212266     0.91300
O1327       O  0.49679487  0.79736754  0.56789334    -0.72500
O1328       O  0.49462223  0.79322605  0.49527302    -0.73400
O1329       O  0.45039118  0.79571974  0.53226768    -0.62100
O1330       O  0.04110686  0.79475708  0.53084204    -0.70500
O1331       O  0.04060931  0.74645634  0.53394281    -0.70000
O1332       O  0.45014439  0.74724577  0.53246130    -0.61300
O1333       O  0.49663174  0.74473159  0.49720900    -0.73800
O1334       O  0.49420142  0.74882170  0.56900220    -0.72600
Cu1335     Cu  0.49573256  0.79696199  0.53149917     1.04600
Cu1336     Cu  0.49537119  0.74524137  0.53319473     1.04300
C1337       C  0.49564851  0.77351784  0.57992016     0.93700
C1338       C  0.49563854  0.76820054  0.48474462     0.92900
C1339       C  0.43583597  0.77158432  0.53247238     0.85000
C1340       C  0.05529576  0.77039952  0.53235866     0.91300
O1341       O  0.20643783  0.96331103  0.53087424    -0.72500
O1342       O  0.29699763  0.96535252  0.52934495    -0.73400
O1343       O  0.25338474  0.96073558  0.56582657    -0.62100
O1344       O  0.25090922  0.96718012  0.49427510    -0.70500
O1345       O  0.24880827  0.51567439  0.49704993    -0.70000
O1346       O  0.25196408  0.50923229  0.56903517    -0.61300
O1347       O  0.29601999  0.51366734  0.53218858    -0.73800
O1348       O  0.20552775  0.51168226  0.53401324    -0.72600
Cu1349     Cu  0.25191755  0.96254429  0.52997112     1.04600
Cu1350     Cu  0.25056850  0.51422803  0.53317458     1.04300
C1351       C  0.19153076  0.98723341  0.53259768     0.93700
C1352       C  0.31092596  0.98979871  0.53073349     0.92900
C1353       C  0.25330234  0.98388863  0.57882497     0.85000
C1354       C  0.24922965  0.99229029  0.48426811     0.91300
O1355       O  0.24783287  0.78968442  0.49694246    -0.72500
O1356       O  0.24332706  0.79865022  0.56902490    -0.73400
O1357       O  0.29087180  0.79441561  0.53421154    -0.62100
O1358       O  0.20047793  0.79415955  0.53113711    -0.70500
O1359       O  0.20023913  0.74605444  0.53581750    -0.70000
O1360       O  0.29094769  0.74603579  0.53655909    -0.61300
O1361       O  0.24521587  0.75021833  0.57217683    -0.73800
O1362       O  0.24607931  0.74123325  0.50056402    -0.72600
Cu1363     Cu  0.24566179  0.79587976  0.53273791     1.04600
Cu1364     Cu  0.24565394  0.74428185  0.53645771     1.04300
C1365       C  0.24726703  0.76407090  0.48739456     0.93700
C1366       C  0.24339013  0.77556388  0.58204087     0.92900
C1367       C  0.30533704  0.77021362  0.53523835     0.85000
C1368       C  0.18592247  0.77017765  0.53309152     0.91300
O1369       O  0.02293905  0.99222770  0.99584297    -0.72500
O1370       O  0.02198223  0.99450726  0.06760882    -0.73400
O1371       O  0.02286677  0.94792997  0.03221895    -0.62100
O1372       O  0.02135536  0.53860303  0.03090845    -0.70500
O1373       O  0.97336298  0.53806104  0.03103303    -0.70000
O1374       O  0.97489789  0.94762281  0.03072873    -0.61300
O1375       O  0.97375441  0.99255430  0.06707288    -0.73800
O1376       O  0.97467338  0.99315323  0.99495822    -0.72600
Cu1377     Cu  0.02391478  0.99333036  0.03168022     1.04600
Cu1378     Cu  0.47258260  0.99280429  0.03097093     1.04300
C1379       C  0.99911444  0.99277403  0.98411547     0.93700
C1380       C  0.99773030  0.99364128  0.07864687     0.92900
C1381       C  0.99899575  0.93335629  0.03141667     0.85000
C1382       C  0.99715160  0.55274551  0.03068539     0.91300
O1383       O  0.01844027  0.69763011  0.02963367    -0.72500
O1384       O  0.02006607  0.78798278  0.03151340    -0.73400
O1385       O  0.01911001  0.74179043  0.06684530    -0.62100
O1386       O  0.01901062  0.74418058  0.99454057    -0.70500
O1387       O  0.97074439  0.74323631  0.99483825    -0.70000
O1388       O  0.97090085  0.74417997  0.06663643    -0.61300
O1389       O  0.97208340  0.78875097  0.03054944    -0.73800
O1390       O  0.97046473  0.69809847  0.03069536    -0.72600
Cu1391     Cu  0.02082041  0.74280167  0.03065009     1.04600
Cu1392     Cu  0.46953979  0.74360135  0.03070239     1.04300
C1393       C  0.99435429  0.68343471  0.02995298     0.93700
C1394       C  0.99629057  0.80276832  0.03101101     0.92900
C1395       C  0.99492806  0.74320714  0.07806776     0.85000
C1396       C  0.99471277  0.74415530  0.98340251     0.91300
O1397       O  0.22294317  0.99913760  0.99540980    -0.72500
O1398       O  0.22512642  0.99777792  0.06786678    -0.73400
O1399       O  0.22396028  0.54363054  0.03232951    -0.62100
O1400       O  0.22378150  0.95325115  0.03135964    -0.70500
O1401       O  0.27178628  0.95295884  0.03133414    -0.70000
O1402       O  0.27191959  0.54367689  0.03080910    -0.61300
O1403       O  0.27335166  0.99911669  0.06689853    -0.73800
O1404       O  0.27116127  0.99759383  0.99492857    -0.72600
Cu1405     Cu  0.22228275  0.99845761  0.03173861     1.04600
Cu1406     Cu  0.27366918  0.99833071  0.03090683     1.04300
C1407       C  0.24689634  0.99834504  0.98380329     0.93700
C1408       C  0.24962562  0.99847875  0.07870814     0.92900
C1409       C  0.24787853  0.55806710  0.03184251     0.85000
C1410       C  0.24770463  0.93869567  0.03162913     0.91300
O1411       O  0.27300686  0.70308640  0.03489813    -0.72500
O1412       O  0.27278311  0.79361945  0.03567939    -0.73400
O1413       O  0.27175501  0.74769005  0.07140118    -0.62100
O1414       O  0.27466689  0.74880073  0.99936506    -0.70500
O1415       O  0.22647803  0.74753152  0.99775463    -0.70000
O1416       O  0.22353588  0.74904028  0.07026242    -0.61300
O1417       O  0.22483045  0.79370155  0.03374477    -0.73800
O1418       O  0.22501380  0.70308445  0.03427674    -0.72600
Cu1419     Cu  0.27465744  0.74831718  0.03540829     1.04600
Cu1420     Cu  0.22328847  0.74835458  0.03397664     1.04300
C1421       C  0.24904578  0.68867264  0.03452000     0.93700
C1422       C  0.24881147  0.80807742  0.03454543     0.92900
C1423       C  0.24729216  0.74820767  0.08217410     0.85000
C1424       C  0.25113625  0.74811482  0.98720373     0.91300
N1425       N  0.02484445  0.96982249  0.92339688    -0.36100
N1426       N  0.98336636  0.51850491  0.92160277    -0.56700
N1427       N  0.49220620  0.52123013  0.86957516    -0.36100
N1428       N  0.53015074  0.97209406  0.87099258    -0.56700
C1429       C  0.01364299  0.96934682  0.94584389     0.27500
C1430       C  0.03488401  0.94242954  0.91861308     0.27500
C1431       C  0.47014763  0.54032362  0.87287488     0.27500
C1432       C  0.49287296  0.51443499  0.84590578     0.27500
C1433       C  0.98840879  0.51752762  0.94550901     0.36100
C1434       C  0.97269196  0.54563959  0.91714962     0.36100
C1435       C  0.54891695  0.95021201  0.87590353     0.36100
C1436       C  0.53307696  0.97825587  0.84744903     0.36100
C1437       C  0.01780739  0.94187928  0.95591316    -0.21400
C1438       C  0.03081204  0.92474528  0.93862065    -0.21400
C1439       C  0.45666943  0.54609597  0.85115312    -0.21400
C1440       C  0.47075349  0.52937980  0.83411086    -0.21400
C1441       C  0.97991667  0.54363899  0.95638057    -0.22500
C1442       C  0.97019030  0.56159908  0.93833903    -0.22500
C1443       C  0.56426379  0.94255270  0.85539406    -0.22500
C1444       C  0.55454360  0.96068991  0.83738872    -0.22500
C1445       C  0.00014699  0.99318141  0.95767066    -0.17800
C1446       C  0.54691141  0.93259031  0.89650590    -0.17800
C1447       C  0.51385424  0.99655818  0.83453292    -0.17800
C1448       C  0.46529310  0.55625245  0.89413423    -0.17800
H1449       H  0.01134302  0.93467936  0.97362410     0.15100
H1450       H  0.03643369  0.90178931  0.94063533     0.15100
H1451       H  0.43902143  0.56135226  0.84791854     0.15100
H1452       H  0.46578088  0.52898937  0.81510558     0.15100
H1453       H  0.98126919  0.54941817  0.97523523     0.13400
H1454       H  0.96235175  0.58389820  0.94056249     0.13400
H1455       H  0.57959838  0.92462747  0.85338854     0.13400
H1456       H  0.56118263  0.95975046  0.81875737     0.13400
H1457       H  0.02678529  0.98826356  0.91255897     0.26600
H1458       H  0.50831257  0.51691980  0.88219330     0.26600
N1459       N  0.97271067  0.71976848  0.92203175    -0.36100
N1460       N  0.01106764  0.77073663  0.92135755    -0.56700
N1461       N  0.50487637  0.77235735  0.86913079    -0.36100
N1462       N  0.46990190  0.72113556  0.86948277    -0.56700
C1463       C  0.98309321  0.72003240  0.94477140     0.27500
C1464       C  0.96504729  0.69172523  0.91700636     0.27500
C1465       C  0.52618565  0.79216761  0.87289144     0.27500
C1466       C  0.50478253  0.76581840  0.84539649     0.27500
C1467       C  0.00444855  0.76988998  0.94498845     0.36100
C1468       C  0.02066961  0.79824389  0.91701548     0.36100
C1469       C  0.45218965  0.69837239  0.87404395     0.36100
C1470       C  0.46637527  0.72778602  0.84608993     0.36100
C1471       C  0.98084107  0.69227040  0.95469563    -0.21400
C1472       C  0.96975647  0.67429024  0.93707102    -0.21400
C1473       C  0.53995874  0.79832156  0.85137671    -0.21400
C1474       C  0.52661184  0.78146492  0.83401214    -0.21400
C1475       C  0.01046570  0.79665413  0.95584590    -0.22500
C1476       C  0.02051778  0.81476436  0.93804641    -0.22500
C1477       C  0.43713858  0.69039970  0.85346852    -0.22500
C1478       C  0.44571399  0.70947992  0.83578211    -0.22500
C1479       C  0.99406245  0.74482815  0.95694821    -0.17800
C1480       C  0.45430910  0.68118260  0.89480802    -0.17800
C1481       C  0.48411671  0.74778907  0.83359649    -0.17800
C1482       C  0.52986443  0.80843476  0.89427154    -0.17800
H1483       H  0.98722415  0.68552089  0.97256801     0.15100
H1484       H  0.96571183  0.65096761  0.93883987     0.15100
H1485       H  0.55709523  0.81415900  0.84841770     0.15100
H1486       H  0.53179602  0.78147484  0.81505431     0.15100
H1487       H  0.00751238  0.80261458  0.97453590     0.13400
H1488       H  0.02684928  0.83749580  0.94037685     0.13400
H1489       H  0.42240002  0.67206169  0.85129216     0.13400
H1490       H  0.43863990  0.70891531  0.81724068     0.13400
H1491       H  0.96954146  0.73804032  0.91118247     0.26600
H1492       H  0.48856120  0.76749387  0.88134027     0.26600
N1493       N  0.26986652  0.97319389  0.92261761    -0.36100
N1494       N  0.22914427  0.52286067  0.92096890    -0.56700
N1495       N  0.23434844  0.52233388  0.86856102    -0.36100
N1496       N  0.27122769  0.97195778  0.87004013    -0.56700
C1497       C  0.25975641  0.97365466  0.94545291     0.27500
C1498       C  0.28050271  0.94585286  0.91846150     0.27500
C1499       C  0.21408688  0.54333730  0.87217747     0.27500
C1500       C  0.23277177  0.51404353  0.84519860     0.27500
C1501       C  0.23526358  0.52232524  0.94476493     0.36100
C1502       C  0.21990247  0.55048919  0.91614586     0.36100
C1503       C  0.29138082  0.95130354  0.87488796     0.36100
C1504       C  0.27223499  0.97674277  0.84614882     0.36100
C1505       C  0.26494977  0.94675194  0.95621029    -0.21400
C1506       C  0.27773275  0.92910774  0.93913941    -0.21400
C1507       C  0.19937490  0.54872921  0.85092633    -0.21400
C1508       C  0.21076895  0.52978646  0.83395974    -0.21400
C1509       C  0.22879934  0.54919238  0.95525322    -0.22500
C1510       C  0.21951245  0.56718723  0.93708870    -0.22500
C1511       C  0.30556749  0.94300493  0.85396168    -0.22500
C1512       C  0.29359349  0.95932180  0.83574129    -0.22500
C1513       C  0.24686645  0.99799819  0.95717673    -0.17800
C1514       C  0.29231679  0.93537943  0.89650798    -0.17800
C1515       C  0.25222866  0.99451702  0.83348797    -0.17800
C1516       C  0.21220622  0.56090699  0.89304252    -0.17800
H1517       H  0.25956310  0.94029973  0.97435590     0.15100
H1518       H  0.28407743  0.90643529  0.94176053     0.15100
H1519       H  0.18273550  0.56515961  0.84789022     0.15100
H1520       H  0.20439567  0.52867059  0.81525578     0.15100
H1521       H  0.23153645  0.55552031  0.97389028     0.13400
H1522       H  0.21353266  0.59004329  0.93921852     0.13400
H1523       H  0.32179072  0.92590217  0.85193148     0.13400
H1524       H  0.29919754  0.95767787  0.81690733     0.13400
H1525       H  0.27117263  0.99111343  0.91115782     0.26600
H1526       H  0.25104020  0.51766507  0.88051932     0.26600
N1527       N  0.23429936  0.72389439  0.92417625    -0.36100
N1528       N  0.23588572  0.72595329  0.87144905    -0.56700
N1529       N  0.27300485  0.77495187  0.87366102    -0.36100
N1530       N  0.27518849  0.77280041  0.92630026    -0.56700
C1531       C  0.22612700  0.69615897  0.91837008     0.27500
C1532       C  0.24220999  0.72383943  0.94761422     0.27500
C1533       C  0.27414448  0.76920946  0.84981441     0.27500
C1534       C  0.29535896  0.79291769  0.87896916     0.27500
C1535       C  0.21635321  0.70446262  0.87497493     0.36100
C1536       C  0.23343168  0.73411642  0.84825129     0.36100
C1537       C  0.26589759  0.77261851  0.94934618     0.36100
C1538       C  0.28628841  0.79988290  0.92246472     0.36100
C1539       C  0.22853791  0.67843653  0.93854260    -0.21400
C1540       C  0.23822602  0.69604908  0.95709149    -0.21400
C1541       C  0.29778346  0.78347376  0.83984442    -0.21400
C1542       C  0.31111427  0.79862371  0.85829699    -0.21400
C1543       C  0.20125671  0.69880638  0.85389550    -0.22500
C1544       C  0.21178734  0.71800067  0.83698279    -0.22500
C1545       C  0.27208319  0.79921082  0.96044844    -0.22500
C1546       C  0.28470824  0.81663585  0.94332794    -0.22500
C1547       C  0.21589157  0.68663758  0.89555116    -0.17800
C1548       C  0.25262391  0.74840136  0.96062411    -0.17800
C1549       C  0.29694717  0.80987320  0.90013264    -0.17800
C1550       C  0.25290380  0.75339871  0.83678223    -0.17800
H1551       H  0.22366559  0.65524511  0.93988931     0.15100
H1552       H  0.24254296  0.68903416  0.97531070     0.15100
H1553       H  0.30404423  0.78388714  0.82111550     0.15100
H1554       H  0.32924081  0.81358696  0.85653996     0.15100
H1555       H  0.18503523  0.68197794  0.85091260     0.13400
H1556       H  0.20528807  0.71897208  0.81830981     0.13400
H1557       H  0.26735054  0.80562776  0.97878472     0.13400
H1558       H  0.29161705  0.83913688  0.94596571     0.13400
H1559       H  0.23266369  0.74239497  0.91333025     0.26600
H1560       H  0.25524045  0.77145677  0.88480826     0.26600
N1561       N  0.02932818  0.97237703  0.64180919    -0.36100
N1562       N  0.48059177  0.00957862  0.64292666    -0.56700
N1563       N  0.48343681  0.01239176  0.69609453    -0.36100
N1564       N  0.03294927  0.97296639  0.69469693    -0.56700
C1565       C  0.02118308  0.96996225  0.61844114     0.27500
C1566       C  0.04951066  0.95152867  0.64605669     0.27500
C1567       C  0.45536146  0.01950334  0.69205017     0.27500
C1568       C  0.48547089  0.00430204  0.71939135     0.27500
C1569       C  0.48429042  0.00989439  0.61886506     0.36100
C1570       C  0.45883882  0.02836894  0.64803947     0.36100
C1571       C  0.05953284  0.96229955  0.68918438     0.36100
C1572       C  0.03449453  0.98219389  0.71780532     0.36100
C1573       C  0.03660184  0.94694052  0.60788657    -0.21400
C1574       C  0.05440712  0.93540492  0.62531954    -0.21400
C1575       C  0.43967128  0.01688209  0.71324551    -0.21400
C1576       C  0.45884633  0.00772303  0.73061497    -0.21400
C1577       C  0.46464579  0.02941367  0.60861001    -0.22500
C1578       C  0.44849368  0.04096644  0.62710984    -0.22500
C1579       C  0.07778632  0.96434047  0.70902506    -0.22500
C1580       C  0.06174078  0.97659206  0.72726462    -0.22500
C1581       C  0.50239364  0.98986099  0.60621502    -0.17800
C1582       C  0.06752030  0.95066597  0.66652077    -0.17800
C1583       C  0.51091417  0.99419448  0.73072908    -0.17800
C1584       C  0.44332317  0.02782998  0.66973797    -0.17800
H1585       H  0.03643862  0.93963432  0.58941804     0.15100
H1586       H  0.07031416  0.91810605  0.62273991     0.15100
H1587       H  0.41674376  0.02105063  0.71596305     0.15100
H1588       H  0.45359021  0.00324147  0.74918361     0.15100
H1589       H  0.46062937  0.03353971  0.58979770     0.13400
H1590       H  0.42986044  0.05535900  0.62527389     0.13400
H1591       H  0.10032425  0.95774503  0.71033319     0.13400
H1592       H  0.06934115  0.98123772  0.74529769     0.13400
H1593       H  0.02555706  0.99013255  0.65317383     0.26600
H1594       H  0.50054169  0.01429541  0.68400332     0.26600
N1595       N  0.01982736  0.75318145  0.64282877    -0.36100
N1596       N  0.46966640  0.78878534  0.64275810    -0.56700
N1597       N  0.46450508  0.78037782  0.69516051    -0.36100
N1598       N  0.01554993  0.74306359  0.69490913    -0.56700
C1599       C  0.01504613  0.75391666  0.61879795     0.27500
C1600       C  0.04095697  0.73328166  0.64690125     0.27500
C1601       C  0.43733081  0.78876824  0.68902876     0.27500
C1602       C  0.46256090  0.76655937  0.71661197     0.27500
C1603       C  0.47653688  0.79238450  0.61936034     0.36100
C1604       C  0.44739922  0.80703848  0.64763862     0.36100
C1605       C  0.04387977  0.73693433  0.69127975     0.36100
C1606       C  0.01279040  0.74840615  0.71868052     0.36100
C1607       C  0.03381437  0.73409042  0.60762064    -0.21400
C1608       C  0.05014779  0.72121117  0.62536910    -0.21400
C1609       C  0.41803991  0.78029207  0.70692605    -0.21400
C1610       C  0.43404098  0.76647465  0.72439032    -0.21400
C1611       C  0.45853411  0.81355475  0.60931769    -0.22500
C1612       C  0.44025449  0.82298122  0.62729557    -0.22500
C1613       C  0.05901286  0.73781581  0.71286272    -0.22500
C1614       C  0.03918655  0.74496156  0.73029201    -0.22500
C1615       C  0.49620061  0.77395564  0.60671223    -0.17800
C1616       C  0.05621822  0.73077848  0.66867888    -0.17800
C1617       C  0.48626501  0.75553114  0.72987470    -0.17800
C1618       C  0.42941069  0.80425628  0.66796979    -0.17800
H1619       H  0.03704714  0.73031669  0.58863903     0.15100
H1620       H  0.06795301  0.70595631  0.62267911     0.15100
H1621       H  0.39476692  0.78360246  0.70743817     0.15100
H1622       H  0.42563407  0.75720621  0.74084182     0.15100
H1623       H  0.45742079  0.82060183  0.59083540     0.13400
H1624       H  0.42232272  0.83820603  0.62519229     0.13400
H1625       H  0.08196084  0.73401453  0.71579251     0.13400
H1626       H  0.04377437  0.74786393  0.74922993     0.13400
H1627       H  0.01300842  0.76846239  0.65553749     0.26600
H1628       H  0.48357695  0.78605751  0.68626983     0.26600
N1629       N  0.22950607  0.96407772  0.64119871    -0.36100
N1630       N  0.28142451  0.99657141  0.64152405    -0.56700
N1631       N  0.28024421  0.99715116  0.69430598    -0.36100
N1632       N  0.22763339  0.96266786  0.69409924    -0.56700
C1633       C  0.23647353  0.96187256  0.61764139     0.27500
C1634       C  0.20857073  0.94418462  0.64562490     0.27500
C1635       C  0.30846658  0.00323844  0.69004606     0.27500
C1636       C  0.27819238  0.98915956  0.71762025     0.27500
C1637       C  0.27614239  0.99853398  0.61771094     0.36100
C1638       C  0.30505497  0.01304984  0.64605766     0.36100
C1639       C  0.19985200  0.95603477  0.68850628     0.36100
C1640       C  0.22717107  0.97326948  0.71684151     0.36100
C1641       C  0.21982690  0.93980324  0.60711087    -0.21400
C1642       C  0.20227534  0.92866912  0.62482171    -0.21400
C1643       C  0.32446705  0.99932451  0.71098594    -0.21400
C1644       C  0.30528507  0.99057301  0.72842837    -0.21400
C1645       C  0.29681430  0.01638062  0.60701574    -0.22500
C1646       C  0.31518548  0.02547230  0.62499819    -0.22500
C1647       C  0.18180493  0.96198754  0.70790147    -0.22500
C1648       C  0.19919916  0.97282550  0.72590892    -0.22500
C1649       C  0.25514758  0.98149491  0.60537722    -0.17800
C1650       C  0.19062705  0.94491383  0.66603244    -0.17800
C1651       C  0.25205202  0.98246255  0.72958567    -0.17800
C1652       C  0.32006079  0.01331918  0.66809042    -0.17800
H1653       H  0.21910993  0.93295906  0.58852620     0.15100
H1654       H  0.18541999  0.91235858  0.62236092     0.15100
H1655       H  0.34754088  0.00274363  0.71354736     0.15100
H1656       H  0.31065764  0.98579649  0.74694130     0.15100
H1657       H  0.29957761  0.02113414  0.58814687     0.13400
H1658       H  0.33447268  0.03874895  0.62270858     0.13400
H1659       H  0.15849671  0.95922837  0.70893166     0.13400
H1660       H  0.19203140  0.98003168  0.74348868     0.13400
H1661       H  0.23440564  0.98162487  0.65252813     0.26600
H1662       H  0.26292373  0.00103328  0.68269228     0.26600
N1663       N  0.21639603  0.75820005  0.64482207    -0.36100
N1664       N  0.26640646  0.79355717  0.64513023    -0.56700
N1665       N  0.27024853  0.78753784  0.69814485    -0.36100
N1666       N  0.21954817  0.75044571  0.69749817    -0.56700
C1667       C  0.22166628  0.75843356  0.62082715     0.27500
C1668       C  0.19523813  0.73842368  0.64881253     0.27500
C1669       C  0.29764179  0.79541869  0.69231283     0.27500
C1670       C  0.27138923  0.77531510  0.72030921     0.27500
C1671       C  0.26015951  0.79657273  0.62153426     0.36100
C1672       C  0.28849191  0.81187447  0.65015623     0.36100
C1673       C  0.19189870  0.74193127  0.69346152     0.36100
C1674       C  0.22176676  0.75521079  0.72143248     0.36100
C1675       C  0.20300986  0.73864534  0.60957580    -0.21400
C1676       C  0.18639762  0.72611253  0.62722640    -0.21400
C1677       C  0.31622394  0.78833755  0.71117131    -0.21400
C1678       C  0.29954063  0.77620813  0.72898627    -0.21400
C1679       C  0.27826487  0.81754188  0.61152057    -0.22500
C1680       C  0.29607806  0.82731682  0.62968831    -0.22500
C1681       C  0.17675050  0.74060751  0.71498220    -0.22500
C1682       C  0.19586919  0.74861504  0.73276992    -0.22500
C1683       C  0.24117228  0.77762492  0.60877755    -0.17800
C1684       C  0.18015094  0.73527764  0.67063900    -0.17800
C1685       C  0.24738257  0.76428213  0.73311553    -0.17800
C1686       C  0.30633704  0.80914936  0.67063978    -0.17800
H1687       H  0.20021358  0.73456164  0.59057581     0.15100
H1688       H  0.16881390  0.71068823  0.62442429     0.15100
H1689       H  0.33947139  0.79149742  0.71216288     0.15100
H1690       H  0.30739188  0.76836097  0.74613453     0.15100
H1691       H  0.27978460  0.82423686  0.59297861     0.13400
H1692       H  0.31403891  0.84243823  0.62768548     0.13400
H1693       H  0.15428417  0.73450324  0.71767201     0.13400
H1694       H  0.19111609  0.74988441  0.75178190     0.13400
H1695       H  0.22322955  0.77340477  0.65753746     0.26600
H1696       H  0.25154992  0.79230815  0.68835965     0.26600
C1697       C  0.39831611  0.81095667  0.66475753    -0.05000
C1698       C  0.38462060  0.83261032  0.67882370    -0.32400
C1699       C  0.35422018  0.83382109  0.67992247     0.36800
C1700       C  0.33775701  0.81328381  0.66676537    -0.05300
C1701       C  0.35162251  0.79319163  0.65145754    -0.32300
C1702       C  0.38166918  0.79194683  0.65034712     0.36800
H1703       H  0.39745294  0.84717887  0.69003312     0.17100
O1704       O  0.34077503  0.85402875  0.69456085    -0.59800
H1705       H  0.33905025  0.77713628  0.64144168     0.17100
O1706       O  0.39463812  0.77007552  0.63706504    -0.59900
H1707       H  0.39465016  0.77736993  0.62029814     0.44100
H1708       H  0.34452765  0.84732091  0.71121510     0.44100
C1709       C  0.08804119  0.72941165  0.66699545    -0.05000
C1710       C  0.10370182  0.70515623  0.67563072    -0.32400
C1711       C  0.13409194  0.70609117  0.67639085     0.36800
C1712       C  0.14854029  0.73151201  0.66860809    -0.05300
C1713       C  0.13277545  0.75517708  0.65929474    -0.32300
C1714       C  0.10274845  0.75432323  0.65852182     0.36800
H1715       H  0.09234075  0.68606143  0.68234749     0.17100
O1716       O  0.14938982  0.68279062  0.68553372    -0.59800
H1717       H  0.14387654  0.77479997  0.65326274     0.17100
O1718       O  0.08780706  0.77834776  0.65015309    -0.59900
H1719       H  0.08341929  0.79039315  0.66461011     0.44100
H1720       H  0.15261187  0.66940055  0.67167764     0.44100
C1721       C  0.41154020  0.02625343  0.66746847    -0.05000
C1722       C  0.39359733  0.54948943  0.67481173    -0.32400
C1723       C  0.36338657  0.54591551  0.67472605     0.36800
C1724       C  0.35141315  0.01910594  0.66711315    -0.05300
C1725       C  0.36941642  0.99620289  0.65937039    -0.32300
C1726       C  0.39932596  0.99961809  0.65951227     0.36800
H1727       H  0.40302224  0.56993836  0.68108220     0.17100
O1728       O  0.34576730  0.56851848  0.68217160    -0.59800
H1729       H  0.36017564  0.97536020  0.65376552     0.17100
O1730       O  0.41666179  0.97629218  0.65306273    -0.59900
H1731       H  0.41878248  0.97773650  0.63538179     0.44100
H1732       H  0.34327948  0.56557462  0.69968722     0.44100
C1733       C  0.09850831  0.94418567  0.66231306    -0.05000
C1734       C  0.11428170  0.46513848  0.64958125    -0.32400
C1735       C  0.14439387  0.46411066  0.64936535     0.36800
C1736       C  0.15914055  0.94170682  0.66189160    -0.05300
C1737       C  0.14327337  0.91913497  0.67284347    -0.32300
C1738       C  0.11284094  0.92018934  0.67293896     0.36800
H1739       H  0.10331910  0.48356331  0.64120242     0.17100
O1740       O  0.15944148  0.48627840  0.63832425    -0.59800
H1741       H  0.15448069  0.90175080  0.68235845     0.17100
O1742       O  0.09741842  0.89902582  0.68481780    -0.59900
H1743       H  0.09415199  0.88326172  0.67274899     0.44100
H1744       H  0.16295099  0.50119469  0.65105357     0.44100
C1745       C  0.25197564  0.75614510  0.81016063    -0.05000
C1746       C  0.23973207  0.78132371  0.79972581    -0.32400
C1747       C  0.23838345  0.78420652  0.77468467     0.36800
C1748       C  0.24930292  0.76172677  0.75973069    -0.05300
C1749       C  0.26170188  0.73661284  0.77016255    -0.32300
C1750       C  0.26310742  0.73375785  0.79522067     0.36800
H1751       H  0.23105534  0.79866545  0.81105793     0.17100
O1752       O  0.22576382  0.80875006  0.76493127    -0.59800
H1753       H  0.27029262  0.71924272  0.75882146     0.17100
O1754       O  0.27592088  0.70933669  0.80500929    -0.59900
H1755       H  0.26014934  0.69462124  0.80626551     0.44100
H1756       H  0.24201709  0.82260621  0.76221048     0.44100
C1757       C  0.29754680  0.90336246  0.89431354    -0.05000
C1758       C  0.32130484  0.88952666  0.90551215    -0.32400
C1759       C  0.32266979  0.85870143  0.90658558     0.36800
C1760       C  0.29995257  0.84189764  0.89660482    -0.05300
C1761       C  0.27733606  0.85589558  0.88427985    -0.32300
C1762       C  0.27596386  0.88626104  0.88313721     0.36800
H1763       H  0.33794490  0.90260253  0.91422334     0.17100
O1764       O  0.34524727  0.84535521  0.91840753    -0.59800
H1765       H  0.25977050  0.84314577  0.87649626     0.17100
O1766       O  0.25253831  0.89917064  0.87208218    -0.59900
H1767       H  0.23796404  0.90216556  0.88497490     0.44100
H1768       H  0.35801744  0.83742702  0.90556401     0.44100
C1769       C  0.20898582  0.59309916  0.88964518    -0.05000
C1770       C  0.18597582  0.60897564  0.90013952    -0.32400
C1771       C  0.18692802  0.63981690  0.90122494     0.36800
C1772       C  0.21094164  0.65479841  0.89160618    -0.05300
C1773       C  0.23261177  0.63897308  0.87951471    -0.32300
C1774       C  0.23188533  0.60842165  0.87861650     0.36800
H1775       H  0.16826033  0.59739648  0.90867546     0.17100
O1776       O  0.16531015  0.65496719  0.91286457    -0.59800
H1777       H  0.25110708  0.65034447  0.87192983     0.17100
O1778       O  0.25466863  0.59359506  0.86821334    -0.59900
H1779       H  0.26868698  0.59003799  0.88144033     0.44100
H1780       H  0.15174214  0.66124808  0.90001362     0.44100
C1781       C  0.25118928  0.99192056  0.80679641    -0.05000
C1782       C  0.24307236  0.96514289  0.79608022    -0.32400
C1783       C  0.24308062  0.96177165  0.77103338     0.36800
C1784       C  0.25089839  0.98555762  0.75627577    -0.05300
C1785       C  0.25865522  0.51235527  0.76697474    -0.32300
C1786       C  0.25908863  0.51560900  0.79201008     0.36800
H1787       H  0.23724597  0.94662206  0.80723877     0.17100
O1788       O  0.23688648  0.93479666  0.76114874    -0.59800
H1789       H  0.26490455  0.53077153  0.75585975     0.17100
O1790       O  0.26845651  0.54156347  0.80198288    -0.59900
H1791       H  0.25243786  0.55579443  0.79932114     0.44100
H1792       H  0.21576198  0.93188403  0.76367472     0.44100
C1793       C  0.48232408  0.74897705  0.80695724    -0.05000
C1794       C  0.98995628  0.72430175  0.79316075    -0.32400
C1795       C  0.99031797  0.72575083  0.76803056     0.36800
C1796       C  0.48357959  0.75241061  0.75642082    -0.05300
C1797       C  0.47523367  0.77685640  0.77031333    -0.32300
C1798       C  0.47416140  0.77513841  0.79534849     0.36800
H1799       H  0.99592830  0.70393627  0.80191628     0.17100
O1800       O  0.99665032  0.70094857  0.75487110    -0.59800
H1801       H  0.46992185  0.79748817  0.76169222     0.17100
O1802       O  0.46588427  0.79939237  0.80840130    -0.59900
H1803       H  0.44506680  0.79620156  0.81217550     0.44100
H1804       H  0.01735128  0.69644217  0.75826225     0.44100
C1805       C  0.54710391  0.90052711  0.89228614    -0.05000
C1806       C  0.52251443  0.88880742  0.88096581    -0.32400
C1807       C  0.51760263  0.85875895  0.88083755     0.36800
C1808       C  0.53772593  0.83975074  0.89177184    -0.05300
C1809       C  0.06329987  0.85116411  0.90190725    -0.32300
C1810       C  0.06811137  0.88162886  0.90214709     0.36800
H1811       H  0.50607495  0.90327189  0.87352899     0.17100
O1812       O  0.49223340  0.84822768  0.87109376    -0.59800
H1813       H  0.07883675  0.83660537  0.91040205     0.17100
O1814       O  0.09227552  0.89284394  0.91329953    -0.59900
H1815       H  0.10805339  0.89113313  0.90126079     0.44100
H1816       H  0.47864717  0.84639275  0.88480989     0.44100
C1817       C  0.45986618  0.58795028  0.89142232    -0.05000
C1818       C  0.98371757  0.60542258  0.88545152    -0.32400
C1819       C  0.98121728  0.63579173  0.88528776     0.36800
C1820       C  0.45460209  0.64910390  0.89121462    -0.05300
C1821       C  0.43016294  0.63173788  0.89605957    -0.32300
C1822       C  0.43267262  0.60100096  0.89596019     0.36800
H1823       H  0.00467209  0.59542251  0.88179292     0.17100
O1824       O  0.00526034  0.65251159  0.88033935    -0.59800
H1825       H  0.40961551  0.64199945  0.90059037     0.17100
O1826       O  0.40895142  0.58401433  0.90113114    -0.59900
H1827       H  0.40085691  0.57821498  0.88528525     0.44100
H1828       H  0.01548345  0.65487183  0.89593248     0.44100
C1829       C  0.51416823  0.99544329  0.80785313    -0.05000
C1830       C  0.52253204  0.52034844  0.79481210    -0.32400
C1831       C  0.02104070  0.52030026  0.76966762     0.36800
C1832       C  0.51233778  0.99476232  0.75732792    -0.05300
C1833       C  0.50421975  0.96978669  0.77032651    -0.32300
C1834       C  0.50482255  0.97009610  0.79547147     0.36800
H1835       H  0.02909179  0.54016137  0.80417647     0.17100
O1836       O  0.02833956  0.54518980  0.75728361    -0.59800
H1837       H  0.49691212  0.95023687  0.76092578     0.17100
O1838       O  0.49505763  0.94607901  0.80787675    -0.59900
H1839       H  0.51098202  0.93142040  0.80689411     0.44100
H1840       H  0.01012885  0.55683381  0.75632356     0.44100
C1841       C  0.24762217  0.90522368  0.03243644    -0.05000
C1842       C  0.27355913  0.88918893  0.02890151    -0.32400
C1843       C  0.27427515  0.85806707  0.02954230     0.36800
C1844       C  0.24874923  0.84156584  0.03397837    -0.05300
C1845       C  0.22279076  0.85759127  0.03759365    -0.32300
C1846       C  0.22208270  0.88874094  0.03699618     0.36800
H1847       H  0.29359968  0.90082700  0.02537880     0.17100
O1848       O  0.30026659  0.84407840  0.02561734    -0.59800
H1849       H  0.20276470  0.84592563  0.04112687     0.17100
O1850       O  0.19610344  0.90273713  0.04100172    -0.59900
H1851       H  0.19534870  0.90610129  0.05860818     0.44100
H1852       H  0.30182486  0.84213746  0.00791051     0.44100
C1853       C  0.24783091  0.59154283  0.03267105    -0.05000
C1854       C  0.27416387  0.60722811  0.03460302    -0.32400
C1855       C  0.27490229  0.63833591  0.03562283     0.36800
C1856       C  0.24899629  0.65519213  0.03421527    -0.05300
C1857       C  0.22263736  0.63951008  0.03243213    -0.32300
C1858       C  0.22185407  0.60837862  0.03189387     0.36800
H1859       H  0.29453071  0.59531154  0.03555977     0.17100
O1860       O  0.30132512  0.65192584  0.03793146    -0.59800
H1861       H  0.20227016  0.65142789  0.03145573     0.17100
O1862       O  0.19537192  0.59475886  0.03022787    -0.59900
H1863       H  0.18797535  0.59396983  0.04694409     0.44100
H1864       H  0.30503473  0.65285182  0.05547865     0.44100
C1865       C  0.99889605  0.89986326  0.03123463    -0.05000
C1866       C  0.47245309  0.88446197  0.03110528    -0.32400
C1867       C  0.47128983  0.85339350  0.03082086     0.36800
C1868       C  0.99689698  0.83622506  0.03094020    -0.05300
C1869       C  0.02354190  0.85160157  0.03101638    -0.32300
C1870       C  0.02470976  0.88275622  0.03119503     0.36800
H1871       H  0.45215381  0.89655152  0.03116927     0.17100
O1872       O  0.44457511  0.84011937  0.03065008    -0.59800
H1873       H  0.04380041  0.83943144  0.03095655     0.17100
O1874       O  0.05138166  0.89612803  0.03096122    -0.59900
H1875       H  0.05783211  0.89644586  0.04796727     0.44100
H1876       H  0.43955421  0.83772414  0.01341636     0.44100
C1877       C  0.99655416  0.58622910  0.02999083    -0.05000
C1878       C  0.96990542  0.60172459  0.02958449    -0.32400
C1879       C  0.96871972  0.63288123  0.02916787     0.36800
C1880       C  0.99450479  0.64991760  0.02956803    -0.05300
C1881       C  0.02109371  0.63437828  0.02959691    -0.32300
C1882       C  0.02228977  0.60328000  0.02958294     0.36800
H1883       H  0.94965293  0.58963669  0.02954377     0.17100
O1884       O  0.94203288  0.64631503  0.02855692    -0.59800
H1885       H  0.04137919  0.64640161  0.02962634     0.17100
O1886       O  0.04900910  0.58989229  0.02942804    -0.59900
H1887       H  0.05479819  0.58912781  0.01227533     0.44100
H1888       H  0.93745168  0.64856187  0.01124364     0.44100
C1889       C  0.33881216  0.77032169  0.53458539    -0.05000
C1890       C  0.35448796  0.79687040  0.53208773    -0.32400
C1891       C  0.38543094  0.79767516  0.53117977     0.36800
C1892       C  0.40235333  0.77159542  0.53292509    -0.05300
C1893       C  0.38665972  0.74504144  0.53521260    -0.32300
C1894       C  0.35573358  0.74420329  0.53583243     0.36800
H1895       H  0.34267929  0.81740649  0.53063976     0.17100
O1896       O  0.39878088  0.82426835  0.52792132    -0.59800
H1897       H  0.39844557  0.72447479  0.53648048     0.17100
O1898       O  0.34238231  0.71741934  0.53778306    -0.59900
H1899       H  0.34024806  0.71018219  0.52102859     0.44100
H1900       H  0.39955385  0.83343058  0.54410495     0.44100
C1901       C  0.08879705  0.76997887  0.53225505    -0.05000
C1902       C  0.10493087  0.79581613  0.52779302    -0.32400
C1903       C  0.13589533  0.79613667  0.52763350     0.36800
C1904       C  0.15241900  0.77034202  0.53236530    -0.05300
C1905       C  0.13628321  0.74442993  0.53655961    -0.32300
C1906       C  0.10531274  0.74406692  0.53655288     0.36800
H1907       H  0.09346810  0.81615105  0.52421822     0.17100
O1908       O  0.14968975  0.82213389  0.52285986    -0.59800
H1909       H  0.14774523  0.72408337  0.54008832     0.17100
O1910       O  0.09150732  0.71793387  0.54079301    -0.59900
H1911       H  0.08912747  0.71707746  0.55847811     0.44100
H1912       H  0.15144536  0.82276877  0.50511368     0.44100
C1913       C  0.40806225  0.99173688  0.53142322    -0.05000
C1914       C  0.39233597  0.96525718  0.52864419    -0.32400
C1915       C  0.36143149  0.96437147  0.52828821     0.36800
C1916       C  0.34443831  0.99032902  0.53077526    -0.05300
C1917       C  0.36013851  0.51684697  0.53365680    -0.32300
C1918       C  0.39114783  0.51770717  0.53415159     0.36800
H1919       H  0.40409559  0.94474531  0.52665640     0.17100
O1920       O  0.34815152  0.93758815  0.52576803    -0.59800
H1921       H  0.34828473  0.53727968  0.53582841     0.17100
O1922       O  0.40455110  0.54430910  0.53743912    -0.59900
H1923       H  0.40542613  0.54716265  0.55510432     0.44100
H1924       H  0.34700465  0.93410906  0.50819281     0.44100
C1925       C  0.09448374  0.98844256  0.53234476    -0.05000
C1926       C  0.11029407  0.96171331  0.53172941    -0.32400
C1927       C  0.14128341  0.96085030  0.53190913     0.36800
C1928       C  0.15804941  0.98705021  0.53271091    -0.05300
C1929       C  0.14224950  0.51378693  0.53336111    -0.32300
C1930       C  0.11135051  0.51468060  0.53307473     0.36800
H1931       H  0.09857250  0.94110754  0.53105655     0.17100
O1932       O  0.15484813  0.93401360  0.53100840    -0.59800
H1933       H  0.15390274  0.53443413  0.53398516     0.17100
O1934       O  0.09791814  0.54160035  0.53374101    -0.59900
H1935       H  0.09611134  0.54760793  0.51670045     0.50500
H1936       H  0.15680991  0.92785255  0.54799919     0.44100
C1937       C  0.40423572  0.71682861  0.40103119    -0.05000
C1938       C  0.38960458  0.74234844  0.40823379    -0.32400
C1939       C  0.35957263  0.74288825  0.40924990     0.36800
C1940       C  0.34375375  0.71769127  0.40283738    -0.05300
C1941       C  0.35826517  0.69167876  0.39629891    -0.32300
C1942       C  0.38867623  0.69116094  0.39537916     0.36800
H1943       H  0.40161950  0.76221360  0.41241559     0.17100
O1944       O  0.34566449  0.76864452  0.41515060    -0.59800
H1945       H  0.34601603  0.67226466  0.39133089     0.17100
O1946       O  0.40293035  0.66587968  0.38879757    -0.59900
H1947       H  0.40563922  0.66737680  0.37117462     0.44100
H1948       H  0.34578978  0.76940237  0.43296332     0.44100
C1949       C  0.08921936  0.79955673  0.39835247    -0.05000
C1950       C  0.10677665  0.82101398  0.38769697    -0.32400
C1951       C  0.13702331  0.81763393  0.38780330     0.36800
C1952       C  0.14943100  0.79287490  0.39884408    -0.05300
C1953       C  0.13191980  0.77266643  0.41082468    -0.32300
C1954       C  0.10197848  0.77585277  0.41066087     0.36800
H1955       H  0.09698744  0.83930320  0.37824993     0.17100
O1956       O  0.15422635  0.83798151  0.37665179    -0.59800
H1957       H  0.14150573  0.75358931  0.41937238     0.17100
O1958       O  0.08517444  0.75432897  0.42078239    -0.59900
H1959       H  0.08340481  0.75993771  0.43796285     0.44100
H1960       H  0.15443342  0.83211570  0.35946314     0.44100
C1961       C  0.40350529  0.52801021  0.39996621    -0.05000
C1962       C  0.39040188  0.55465011  0.39345749    -0.32400
C1963       C  0.36009795  0.55711734  0.39348732     0.36800
C1964       C  0.34323674  0.03277135  0.39996392    -0.05300
C1965       C  0.35659715  0.00680487  0.40767175    -0.32300
C1966       C  0.38659025  0.00441751  0.40783165     0.36800
H1967       H  0.40359001  0.57299601  0.38768914     0.17100
O1968       O  0.34709031  0.58296232  0.38679631    -0.59800
H1969       H  0.34359478  0.98795498  0.41267598     0.17100
O1970       O  0.39925346  0.97821593  0.41413961    -0.59900
H1971       H  0.40370584  0.98018288  0.43151329     0.44100
H1972       H  0.34736611  0.58281657  0.36898403     0.44100
C1973       C  0.15549384  0.95119393  0.39683525    -0.05000
C1974       C  0.14014949  0.47387213  0.40824421    -0.32400
C1975       C  0.11008486  0.47400752  0.40814861     0.36800
C1976       C  0.09493622  0.45128324  0.39644996    -0.05300
C1977       C  0.11014373  0.92762896  0.38589948    -0.32300
C1978       C  0.14060681  0.92768259  0.38592037     0.36800
H1979       H  0.15159127  0.49226650  0.41630440     0.17100
O1980       O  0.09559351  0.49756313  0.41798321    -0.59800
H1981       H  0.09848155  0.91013241  0.37682316     0.17100
O1982       O  0.15565824  0.90536224  0.37485277    -0.59900
H1983       H  0.15266998  0.90828610  0.35738614     0.44100
H1984       H  0.09498944  0.49366486  0.43549376     0.44100
C1985       C  0.24433006  0.74577077  0.25934166    -0.05000
C1986       C  0.25337219  0.77058099  0.27241955    -0.32400
C1987       C  0.25375954  0.77027827  0.29757933     0.36800
C1988       C  0.24492405  0.74499188  0.31004053    -0.05300
C1989       C  0.23612238  0.72005998  0.29703531    -0.32300
C1990       C  0.23573348  0.72034933  0.27183394     0.36800
H1991       H  0.26023743  0.79018558  0.26304402     0.17100
O1992       O  0.26253445  0.79488107  0.30991555    -0.59800
H1993       H  0.22933682  0.70047337  0.30647312     0.17100
O1994       O  0.22702136  0.69569550  0.25953398    -0.59900
H1995       H  0.20579400  0.69816372  0.25719334     0.44100
H1996       H  0.28395272  0.79298342  0.31132490     0.44100
C1997       C  0.20615143  0.90471020  0.17179610    -0.05000
C1998       C  0.18416287  0.88935726  0.15956757    -0.32400
C1999       C  0.18295072  0.85858009  0.16079143     0.36800
C2000       C  0.20379929  0.84328563  0.17446674    -0.05300
C2001       C  0.22419799  0.85892239  0.18806570    -0.32300
C2002       C  0.22554466  0.88934359  0.18680084     0.36800
H2003       H  0.16894713  0.90109344  0.14823585     0.17100
O2004       O  0.16230204  0.84352231  0.14789646    -0.59800
H2005       H  0.24052951  0.84732047  0.19842418     0.17100
O2006       O  0.24753563  0.90372949  0.19866047    -0.59900
H2007       H  0.24137871  0.90455585  0.21572523     0.44100
H2008       H  0.16861231  0.84457936  0.13089621     0.44100
C2009       C  0.29411988  0.59287367  0.17211959    -0.05000
C2010       C  0.31602620  0.60883677  0.16045800    -0.32400
C2011       C  0.31570511  0.63970280  0.16111263     0.36800
C2012       C  0.29350388  0.65442373  0.17376391    -0.05300
C2013       C  0.27337734  0.63830603  0.18706761    -0.32300
C2014       C  0.27348214  0.60785074  0.18630755     0.36800
H2015       H  0.33223776  0.59744674  0.14980148     0.17100
O2016       O  0.33625721  0.65529911  0.14872201    -0.59800
H2017       H  0.25609907  0.64945288  0.19674207     0.17100
O2018       O  0.25154079  0.59296696  0.19762680    -0.59900
H2019       H  0.25717592  0.59254100  0.21482611     0.44100
H2020       H  0.33113330  0.65297340  0.13151116     0.44100
C2021       C  0.24894202  0.99766968  0.30614176    -0.05000
C2022       C  0.24382727  0.52403351  0.29411030    -0.32400
C2023       C  0.24382881  0.52502097  0.26896232     0.36800
C2024       C  0.24911520  0.99931361  0.25556282    -0.05300
C2025       C  0.25457084  0.97285319  0.26769036    -0.32300
C2026       C  0.25424946  0.97187429  0.29281146     0.36800
H2027       H  0.23938890  0.54389271  0.30429912     0.17100
O2028       O  0.23748027  0.55094826  0.25758692    -0.59800
H2029       H  0.25888634  0.95288841  0.25759487     0.17100
O2030       O  0.25971708  0.94579048  0.30422992    -0.59900
H2031       H  0.24051339  0.93610409  0.30566642     0.44100
H2032       H  0.25498402  0.56339509  0.25968540     0.44100
C2033       C  0.49683176  0.75202224  0.30622516    -0.05000
C2034       C  0.99940131  0.77786157  0.29277525    -0.32400
C2035       C  0.99849837  0.77708912  0.26758698     0.36800
C2036       C  0.49483267  0.75007825  0.25541016    -0.05300
C2037       C  0.49196383  0.72424767  0.26893512    -0.32300
C2038       C  0.49327915  0.72502001  0.29408466     0.36800
H2039       H  0.00217091  0.79878440  0.30187283     0.17100
O2040       O  0.00229082  0.80263777  0.25496960    -0.59800
H2041       H  0.48914416  0.70328845  0.25990624     0.17100
O2042       O  0.49220754  0.69918618  0.30667431    -0.59900
H2043       H  0.47177749  0.69243487  0.30545791     0.44100
H2044       H  0.98396988  0.81386303  0.25704418     0.44100
C2045       C  0.44829025  0.83831757  0.16943846    -0.05000
C2046       C  0.96993046  0.85299480  0.18244430    -0.32400
C2047       C  0.97141267  0.88340925  0.18233909     0.36800
C2048       C  0.45064319  0.89974478  0.16945843    -0.05300
C2049       C  0.42758746  0.88527067  0.15785191    -0.32300
C2050       C  0.42631064  0.85448068  0.15781582     0.36800
H2051       H  0.98701838  0.84069845  0.19134116     0.17100
O2052       O  0.99433038  0.89697362  0.19362986    -0.59800
H2053       H  0.41160071  0.89777007  0.14786847     0.17100
O2054       O  0.40491156  0.84043583  0.14503622    -0.59900
H2055       H  0.39112466  0.83308160  0.15727914     0.44100
H2056       H  0.00952753  0.89895246  0.18112848     0.44100
C2057       C  0.53704698  0.65146090  0.17248545    -0.05000
C2058       C  0.51478298  0.63625914  0.18409146    -0.32400
C2059       C  0.51417390  0.60578101  0.18372408     0.36800
C2060       C  0.53638802  0.58998590  0.17200163    -0.05300
C2061       C  0.05977470  0.60512942  0.16172391    -0.32300
C2062       C  0.06021538  0.63593790  0.16194851     0.36800
H2063       H  0.49677604  0.64815481  0.19212037     0.17100
O2064       O  0.49091157  0.59156310  0.19375365    -0.59800
H2065       H  0.07686763  0.59306324  0.15262102     0.17100
O2066       O  0.08219172  0.65058136  0.15052533    -0.59900
H2067       H  0.09475469  0.65831716  0.16358658     0.44100
H2068       H  0.47665999  0.58918352  0.18050521     0.44100
C2069       C  0.49534365  0.48886714  0.30594027    -0.05000
C2070       C  0.48698234  0.51516364  0.29467796    -0.32400
C2071       C  0.48552795  0.51699366  0.26961449     0.36800
C2072       C  0.49331616  0.49258152  0.25537416    -0.05300
C2073       C  0.00105890  0.96603475  0.26662219    -0.32300
C2074       C  0.00188191  0.96398268  0.29171506     0.36800
H2075       H  0.48149491  0.53431856  0.30540857     0.17100
O2076       O  0.47665952  0.54274805  0.25916598    -0.59800
H2077       H  0.00642153  0.94689026  0.25583066     0.17100
O2078       O  0.00801532  0.93743214  0.30219198    -0.59900
H2079       H  0.02890696  0.93374743  0.29898505     0.44100
H2080       H  0.45530706  0.54082688  0.25732213     0.44100
N2081       N  0.51568403  0.01937373  0.14099665    -0.36100
N2082       N  0.47669565  0.46871282  0.13984626    -0.56700
N2083       N  0.97652271  0.46912359  0.19219736    -0.36100
N2084       N  0.01205202  0.01973244  0.19362619    -0.56700
C2085       C  0.50764207  0.01861894  0.11760784     0.27500
C2086       C  0.52344255  0.04738550  0.14615261     0.27500
C2087       C  0.95595287  0.44899908  0.18714729     0.27500
C2088       C  0.97377056  0.47634930  0.21566686     0.27500
C2089       C  0.48581504  0.46889216  0.11679613     0.36100
C2090       C  0.46693239  0.44122015  0.14402284     0.36100
C2091       C  0.03175109  0.04102586  0.18991344     0.36100
C2092       C  0.01304574  0.01331994  0.21725407     0.36100
C2093       C  0.51137318  0.04610230  0.10748262    -0.21400
C2094       C  0.52095925  0.06438755  0.12557346    -0.21400
C2095       C  0.93968747  0.44338079  0.20753812    -0.21400
C2096       C  0.95076746  0.46092460  0.22555521    -0.21400
C2097       C  0.48109265  0.44178196  0.10606495    -0.22500
C2098       C  0.46945915  0.42407718  0.12343335    -0.22500
C2099       C  0.04541262  0.04836713  0.21131653    -0.22500
C2100       C  0.03385443  0.03044183  0.22864249    -0.22500
C2101       C  0.49732818  0.49360491  0.10509656    -0.17800
C2102       C  0.53276251  0.05792444  0.16888620    -0.17800
C2103       C  0.99343504  0.99416525  0.22873947    -0.17800
C2104       C  0.95567954  0.43156542  0.16622569    -0.17800
H2105       H  0.50693234  0.05249409  0.08912932     0.15100
H2106       H  0.52544516  0.08759292  0.12367905     0.15100
H2107       H  0.92255287  0.42729361  0.20943097     0.15100
H2108       H  0.94352096  0.46133237  0.24404115     0.15100
H2109       H  0.48604042  0.43529693  0.08778237     0.13400
H2110       H  0.46362845  0.40121978  0.12107777     0.13400
H2111       H  0.06119084  0.06564608  0.21421887     0.13400
H2112       H  0.03929228  0.03087378  0.24755747     0.13400
H2113       H  0.51746080  0.00133310  0.15232695     0.26600
H2114       H  0.99438186  0.47341271  0.18136674     0.26600
N2115       N  0.51363684  0.22005304  0.14054847    -0.36100
N2116       N  0.47352698  0.26931146  0.13915213    -0.56700
N2117       N  0.97586505  0.27138505  0.19187345    -0.36100
N2118       N  0.01238524  0.22214834  0.19337242    -0.56700
C2119       C  0.50449918  0.21952486  0.11744356     0.27500
C2120       C  0.52125912  0.19227027  0.14631535     0.27500
C2121       C  0.95341720  0.28918227  0.18643094     0.27500
C2122       C  0.97351746  0.26441965  0.21538905     0.27500
C2123       C  0.48306710  0.26905187  0.11619886     0.36100
C2124       C  0.46381026  0.29686460  0.14344697     0.36100
C2125       C  0.03241592  0.20114655  0.18937312     0.36100
C2126       C  0.01474033  0.22997448  0.21671047     0.36100
C2127       C  0.50694657  0.19136244  0.10814545    -0.21400
C2128       C  0.51713109  0.17399996  0.12650095    -0.21400
C2129       C  0.93635675  0.29361591  0.20662318    -0.21400
C2130       C  0.94884267  0.27757413  0.22490703    -0.21400
C2131       C  0.47873346  0.29618572  0.10562812    -0.22500
C2132       C  0.46688954  0.31401409  0.12303650    -0.22500
C2133       C  0.04783198  0.19550104  0.21024342    -0.22500
C2134       C  0.03701070  0.21425109  0.22752816    -0.22500
C2135       C  0.49463066  0.24413127  0.10457684    -0.17800
C2136       C  0.03249846  0.18318855  0.16878478    -0.17800
C2137       C  0.99459602  0.24850252  0.22855092    -0.17800
C2138       C  0.95238764  0.30654006  0.16563783    -0.17800
H2139       H  0.50138949  0.18400890  0.09019238     0.15100
H2140       H  0.52113549  0.15059625  0.12526349     0.15100
H2141       H  0.91770376  0.30803588  0.20820126     0.15100
H2142       H  0.94132278  0.27670616  0.24330002     0.15100
H2143       H  0.48412750  0.30259403  0.08747290     0.13400
H2144       H  0.46134390  0.33696087  0.12083264     0.13400
H2145       H  0.06436613  0.17885545  0.21286743     0.13400
H2146       H  0.04387520  0.21515119  0.24611231     0.13400
H2147       H  0.01656398  0.23878601  0.15116697     0.26600
H2148       H  0.99421965  0.26863083  0.18117876     0.26600
N2149       N  0.73074993  0.47366576  0.14056617    -0.36100
N2150       N  0.77063575  0.02368612  0.14051753    -0.56700
N2151       N  0.76745358  0.02424192  0.19295992    -0.36100
N2152       N  0.73074161  0.47487599  0.19307165    -0.56700
C2153       C  0.74019469  0.47371397  0.11757970     0.27500
C2154       C  0.72256282  0.44584154  0.14572695     0.27500
C2155       C  0.78929078  0.04301282  0.18835335     0.27500
C2156       C  0.76954148  0.01658109  0.21634224     0.27500
C2157       C  0.76230993  0.02336196  0.11721040     0.36100
C2158       C  0.78013280  0.05124774  0.14518985     0.36100
C2159       C  0.71035773  0.45449588  0.18849772     0.36100
C2160       C  0.72846591  0.48190559  0.21654205     0.36100
C2161       C  0.73728516  0.44586401  0.10769562    -0.21400
C2162       C  0.72660890  0.42810854  0.12559906    -0.21400
C2163       C  0.80565442  0.04743351  0.20897355    -0.21400
C2164       C  0.79341260  0.03034332  0.22663359    -0.21400
C2165       C  0.76745131  0.05042499  0.10677550    -0.22500
C2166       C  0.77833289  0.06827920  0.12461233    -0.22500
C2167       C  0.69466440  0.44862467  0.20916315    -0.22500
C2168       C  0.70599095  0.46627718  0.22696647    -0.22500
C2169       C  0.75048972  0.49858863  0.10523443    -0.17800
C2170       C  0.71100515  0.43641467  0.16798317    -0.17800
C2171       C  0.74877929  0.49961129  0.22884478    -0.17800
C2172       C  0.79021990  0.06096789  0.16789967    -0.17800
H2173       H  0.74281384  0.43895203  0.08962832     0.15100
H2174       H  0.72219393  0.40485287  0.12381864     0.15100
H2175       H  0.82359378  0.06254690  0.21126846     0.15100
H2176       H  0.80045595  0.02927134  0.24516662     0.15100
H2177       H  0.76309918  0.05684329  0.08841544     0.13400
H2178       H  0.78404301  0.09116936  0.12253875     0.13400
H2179       H  0.67801090  0.43209838  0.21141150     0.13400
H2180       H  0.69939294  0.46648625  0.24561592     0.13400
H2181       H  0.72805581  0.49214558  0.15144196     0.26600
H2182       H  0.74947191  0.02125775  0.18186292     0.26600
N2183       N  0.72744475  0.27310117  0.14419604    -0.36100
N2184       N  0.72771095  0.27223027  0.19698876    -0.56700
N2185       N  0.76390989  0.22218014  0.19635690    -0.36100
N2186       N  0.76656814  0.22285153  0.14375167    -0.56700
C2187       C  0.72092255  0.30130658  0.14972349     0.27500
C2188       C  0.73752366  0.27287320  0.12136251     0.27500
C2189       C  0.76536370  0.22904492  0.22000821     0.27500
C2190       C  0.78572872  0.20321798  0.19161639     0.27500
C2191       C  0.70864620  0.29408295  0.19276273     0.36100
C2192       C  0.72553581  0.26552191  0.22052328     0.36100
C2193       C  0.75700656  0.22267323  0.12077278     0.36100
C2194       C  0.77568490  0.19521862  0.14835406     0.36100
C2195       C  0.72705532  0.31906711  0.13008719    -0.21400
C2196       C  0.73701511  0.30097491  0.11203890    -0.21400
C2197       C  0.78872736  0.21453087  0.23037526    -0.21400
C2198       C  0.80149757  0.19803908  0.21242471    -0.21400
C2199       C  0.69395851  0.30127840  0.21372520    -0.22500
C2200       C  0.70444090  0.28289315  0.23131359    -0.22500
C2201       C  0.76048468  0.19513704  0.11053893    -0.22500
C2202       C  0.77191085  0.17753865  0.12816045    -0.22500
C2203       C  0.70897169  0.31126831  0.17176980    -0.17800
C2204       C  0.74660336  0.24765396  0.10875393    -0.17800
C2205       C  0.78744514  0.18598488  0.17055971    -0.17800
C2206       C  0.74476989  0.24633171  0.23259421    -0.17800
H2207       H  0.72472907  0.34266635  0.12875646     0.15100
H2208       H  0.74381674  0.30780304  0.09431639     0.15100
H2209       H  0.79524090  0.21493824  0.24906577     0.15100
H2210       H  0.81940107  0.18280497  0.21462003     0.15100
H2211       H  0.67832779  0.31883866  0.21625042     0.13400
H2212       H  0.69825948  0.28327591  0.25006282     0.13400
H2213       H  0.75486101  0.18836439  0.09245192     0.13400
H2214       H  0.77662892  0.15434707  0.12624343     0.13400
H2215       H  0.72323753  0.25468136  0.15468634     0.26600
H2216       H  0.74636740  0.22602231  0.18498835     0.26600
N2217       N  0.52582098  0.97353620  0.42052798    -0.36100
N2218       N  0.52401476  0.97013245  0.36740247    -0.56700
N2219       N  0.97211918  0.00548805  0.36897489    -0.36100
N2220       N  0.97497249  0.00750796  0.42198770    -0.56700
C2221       C  0.54701395  0.95404023  0.41539504     0.27500
C2222       C  0.52047669  0.97201056  0.44446118     0.27500
C2223       C  0.97183784  0.99537523  0.34606047     0.27500
C2224       C  0.94434576  0.01171815  0.37487695     0.27500
C2225       C  0.55215459  0.96359086  0.37163663     0.36100
C2226       C  0.52254438  0.97893990  0.34426215     0.36100
C2227       C  0.98113201  0.00934578  0.44567133     0.36100
C2228       C  0.95181506  0.02486393  0.41800629     0.36100
C2229       C  0.55544606  0.93975178  0.43618560    -0.21400
C2230       C  0.53879339  0.95106587  0.45453502    -0.21400
C2231       C  0.94375418  0.99558113  0.33714372    -0.21400
C2232       C  0.92630941  0.00573451  0.35539606    -0.21400
C2233       C  0.56849643  0.96775951  0.35097456    -0.22500
C2234       C  0.54962297  0.97737034  0.33356368    -0.22500
C2235       C  0.96167878  0.02841992  0.45679475    -0.22500
C2236       C  0.94316547  0.03824295  0.43923470    -0.22500
C2237       C  0.56322164  0.95402503  0.39394989    -0.17800
C2238       C  0.00144712  0.99093239  0.45746108    -0.17800
C2239       C  0.93484809  0.02356120  0.39703553    -0.17800
C2240       C  0.99667667  0.98754202  0.33273462    -0.17800
H2241       H  0.57311455  0.92418304  0.43813531     0.15100
H2242       H  0.54133279  0.94537905  0.47323526     0.15100
H2243       H  0.93660047  0.98897121  0.31939138     0.15100
H2244       H  0.90298491  0.00861863  0.35432648     0.15100
H2245       H  0.59163375  0.96453523  0.34868366     0.13400
H2246       H  0.55524618  0.98304866  0.31529531     0.13400
H2247       H  0.95957039  0.03355946  0.47567728     0.13400
H2248       H  0.92433009  0.05213881  0.44203236     0.13400
H2249       H  0.51950195  0.99017607  0.40894451     0.26600
H2250       H  0.99046205  0.01042033  0.37917694     0.26600
N2251       N  0.51994065  0.28068225  0.42049107    -0.36100
N2252       N  0.97292086  0.24193843  0.42299948    -0.56700
N2253       N  0.97326543  0.23584838  0.36967275    -0.36100
N2254       N  0.52102988  0.27692991  0.36731308    -0.56700
C2255       C  0.51309285  0.28501572  0.44394124     0.27500
C2256       C  0.53984975  0.30091674  0.41438414     0.27500
C2257       C  0.94595217  0.22735178  0.37516888     0.27500
C2258       C  0.97320723  0.24304980  0.34605167     0.27500
C2259       C  0.97701850  0.24467390  0.44696702     0.36100
C2260       C  0.95157278  0.22218380  0.41969121     0.36100
C2261       C  0.54817991  0.28672478  0.37178331     0.36100
C2262       C  0.52141815  0.26620862  0.34459925     0.36100
C2263       C  0.52899729  0.30877203  0.45265656    -0.21400
C2264       C  0.54595071  0.31862417  0.43401580    -0.21400
C2265       C  0.92872140  0.22836583  0.35465233    -0.21400
C2266       C  0.94597850  0.23811204  0.33628633    -0.21400
C2267       C  0.95792007  0.22627269  0.45897719    -0.22500
C2268       C  0.94196123  0.21201458  0.44171155    -0.22500
C2269       C  0.56559230  0.28277466  0.35164825    -0.22500
C2270       C  0.54843811  0.27015952  0.33428831    -0.22500
C2271       C  0.99530147  0.26604177  0.45787461    -0.17800
C2272       C  0.55762800  0.29860528  0.39394781    -0.17800
C2273       C  0.99731257  0.25347973  0.33300442    -0.17800
C2274       C  0.93573837  0.21923191  0.39817182    -0.17800
H2275       H  0.52985932  0.31743054  0.47072952     0.15100
H2276       H  0.56231184  0.33564591  0.43513422     0.15100
H2277       H  0.90590836  0.22295975  0.35304871     0.15100
H2278       H  0.93908132  0.24176133  0.31794261     0.15100
H2279       H  0.95411721  0.22451842  0.47806058     0.13400
H2280       H  0.92378400  0.19751186  0.44499853     0.13400
H2281       H  0.58832267  0.28820597  0.34960722     0.13400
H2282       H  0.55527419  0.26379217  0.31640389     0.13400
H2283       H  0.51598481  0.26194036  0.41027579     0.26600
H2284       H  0.99121925  0.23522104  0.38103262     0.26600
N2285       N  0.72354955  0.47697950  0.42065929    -0.36100
N2286       N  0.77242585  0.51406851  0.42209796    -0.56700
N2287       N  0.77342831  0.51553446  0.36886404    -0.36100
N2288       N  0.72413554  0.47610127  0.36755126    -0.56700
C2289       C  0.72960642  0.47503195  0.44445745     0.27500
C2290       C  0.70332451  0.45654076  0.41544018     0.27500
C2291       C  0.80095034  0.52355928  0.37412100     0.27500
C2292       C  0.77302700  0.50767044  0.34537599     0.27500
C2293       C  0.76755515  0.51387588  0.44601952     0.36100
C2294       C  0.79529347  0.53179494  0.41834009     0.36100
C2295       C  0.69693642  0.46640048  0.37177067     0.36100
C2296       C  0.72434402  0.48515817  0.34445012     0.36100
C2297       C  0.71261342  0.45291106  0.45435095    -0.21400
C2298       C  0.69614213  0.44129899  0.43603450    -0.21400
C2299       C  0.81788287  0.52173172  0.35348966    -0.21400
C2300       C  0.80010999  0.51208166  0.33527778    -0.21400
C2301       C  0.78744983  0.53210758  0.45750549    -0.22500
C2302       C  0.80500152  0.54335614  0.43995813    -0.22500
C2303       C  0.68009677  0.46881899  0.35113235    -0.22500
C2304       C  0.69766712  0.48029337  0.33370604    -0.22500
C2305       C  0.74828087  0.49424872  0.45755575    -0.17800
C2306       C  0.68697160  0.45568599  0.39404538    -0.17800
C2307       C  0.74866988  0.49701275  0.33277373    -0.17800
C2308       C  0.81153235  0.53206343  0.39698698    -0.17800
H2309       H  0.71080411  0.44643866  0.47292163     0.15100
H2310       H  0.67951881  0.42465560  0.43787652     0.15100
H2311       H  0.84075827  0.52670821  0.35168192     0.15100
H2312       H  0.80657197  0.50802292  0.31686573     0.15100
H2313       H  0.79063608  0.53558512  0.47653689     0.13400
H2314       H  0.82398467  0.55693848  0.44288611     0.13400
H2315       H  0.65743090  0.46321819  0.34881576     0.13400
H2316       H  0.69135575  0.48521584  0.31541990     0.13400
H2317       H  0.72882561  0.49416505  0.40931026     0.26600
H2318       H  0.75558794  0.51687123  0.38025629     0.26600
N2319       N  0.71967933  0.27078256  0.42392132    -0.36100
N2320       N  0.71830413  0.26452469  0.37132399    -0.56700
N2321       N  0.77184358  0.23152425  0.37324711    -0.36100
N2322       N  0.77279572  0.23936996  0.42618883    -0.56700
C2323       C  0.69685635  0.28799957  0.41826721     0.27500
C2324       C  0.72629596  0.27598570  0.44727565     0.27500
C2325       C  0.77013073  0.23746656  0.34943763     0.27500
C2326       C  0.80008115  0.22619621  0.37829178     0.27500
C2327       C  0.69060975  0.27291912  0.37540655     0.36100
C2328       C  0.71906365  0.25415185  0.34853470     0.36100
C2329       C  0.76839290  0.24177863  0.45013355     0.36100
C2330       C  0.79663309  0.22257936  0.42311155     0.36100
C2331       C  0.68869145  0.30448329  0.43813296    -0.21400
C2332       C  0.70714944  0.29688358  0.45646320    -0.21400
C2333       C  0.79732520  0.23471667  0.33906324    -0.21400
C2334       C  0.81629224  0.22789314  0.35728032    -0.21400
C2335       C  0.67378956  0.26806872  0.35504542    -0.22500
C2336       C  0.69197310  0.25652857  0.33789048    -0.22500
C2337       C  0.78971737  0.22625667  0.46238400    -0.22500
C2338       C  0.80757479  0.21411295  0.44525855    -0.22500
C2339       C  0.68047693  0.28582214  0.39695726    -0.17800
C2340       C  0.74731284  0.26039289  0.46087447    -0.17800
C2341       C  0.81181048  0.21981213  0.40122660    -0.17800
C2342       C  0.74449766  0.24468297  0.33679574    -0.17800
H2343       H  0.67045623  0.31946875  0.43955653     0.15100
H2344       H  0.70548203  0.30513885  0.47463547     0.15100
H2345       H  0.80302779  0.23775547  0.32038703     0.15100
H2346       H  0.83946839  0.22468457  0.35520932     0.15100
H2347       H  0.65087642  0.27265005  0.35267303     0.13400
H2348       H  0.68594486  0.25047207  0.31973184     0.13400
H2349       H  0.79313246  0.22495466  0.48157482     0.13400
H2350       H  0.82729238  0.20179437  0.44870542     0.13400
H2351       H  0.72690363  0.25336502  0.41341838     0.26600
H2352       H  0.75452707  0.22924009  0.38507192     0.26600
O2353       O  0.00231223  0.01421168  0.56813886    -0.72500
O2354       O  0.00229025  0.01476708  0.49598015    -0.73400
O2355       O  0.95644044  0.01543806  0.53205585    -0.62100
O2356       O  0.54698960  0.01335248  0.53220387    -0.70500
O2357       O  0.54623532  0.46496302  0.53184956    -0.70000
O2358       O  0.95563601  0.46705595  0.53119088    -0.61300
O2359       O  0.00098810  0.46624903  0.49540101    -0.73800
O2360       O  0.00033508  0.46567447  0.56768844    -0.72600
Cu2361     Cu  0.00196990  0.01607043  0.53209863     1.04600
Cu2362     Cu  0.00077643  0.46435324  0.53151914     1.04300
C2363       C  0.00157387  0.48985884  0.57940312     0.93700
C2364       C  0.00179300  0.49068628  0.48421736     0.92900
C2365       C  0.94161314  0.49155685  0.53156497     0.85000
C2366       C  0.56104216  0.48895752  0.53210222     0.91300
O2367       O  0.99670597  0.29713383  0.56787750    -0.72500
O2368       O  0.99461200  0.29325719  0.49525268    -0.73400
O2369       O  0.95032377  0.29558126  0.53222427    -0.62100
O2370       O  0.54105943  0.29465180  0.53083556    -0.70500
O2371       O  0.54055244  0.24634430  0.53386993    -0.70000
O2372       O  0.95009811  0.24710671  0.53233003    -0.61300
O2373       O  0.99662562  0.24475698  0.49710359    -0.73800
O2374       O  0.99411302  0.24858583  0.56891093    -0.72600
Cu2375     Cu  0.99567984  0.29684931  0.53148838     1.04600
Cu2376     Cu  0.99532279  0.24512404  0.53309192     1.04300
C2377       C  0.99554780  0.27325811  0.57986756     0.93700
C2378       C  0.99562478  0.26826111  0.48468030     0.92900
C2379       C  0.93577722  0.27143652  0.53238152     0.85000
C2380       C  0.55524327  0.27028698  0.53232977     0.91300
O2381       O  0.70646686  0.46335013  0.53082197    -0.72500
O2382       O  0.79703562  0.46536826  0.52929786    -0.73400
O2383       O  0.75341170  0.46073802  0.56577493    -0.62100
O2384       O  0.75094298  0.46720437  0.49424039    -0.70500
O2385       O  0.74878662  0.01565899  0.49709552    -0.70000
O2386       O  0.75193575  0.00921026  0.56908925    -0.61300
O2387       O  0.79599004  0.01365395  0.53224531    -0.73800
O2388       O  0.70549195  0.01162772  0.53406443    -0.72600
Cu2389     Cu  0.75195003  0.46256392  0.52992520     1.04600
Cu2390     Cu  0.75053721  0.01420143  0.53322629     1.04300
C2391       C  0.69156566  0.48727723  0.53254891     0.93700
C2392       C  0.81096183  0.48981681  0.53068489     0.92900
C2393       C  0.75332950  0.48388515  0.57877889     0.85000
C2394       C  0.74924954  0.49231652  0.48424134     0.91300
O2395       O  0.74774161  0.28941422  0.49695755    -0.72500
O2396       O  0.74327207  0.29844787  0.56903710    -0.73400
O2397       O  0.79080252  0.29418499  0.53420789    -0.62100
O2398       O  0.70042404  0.29393974  0.53116337    -0.70500
O2399       O  0.70016554  0.24584061  0.53588468    -0.70000
O2400       O  0.79088349  0.24580748  0.53657931    -0.61300
O2401       O  0.74516743  0.25001971  0.57221758    -0.73800
O2402       O  0.74596583  0.24096836  0.50061796    -0.72600
Cu2403     Cu  0.74559622  0.29564842  0.53275049     1.04600
Cu2404     Cu  0.74558066  0.24405482  0.53650530     1.04300
C2405       C  0.74714901  0.26378917  0.48743004     0.93700
C2406       C  0.74333397  0.27537220  0.58206622     0.92900
C2407       C  0.80527108  0.26998618  0.53523588     0.85000
C2408       C  0.68586063  0.26996740  0.53313636     0.91300
O2409       O  0.52298978  0.49225526  0.99584473    -0.72500
O2410       O  0.52194377  0.49449022  0.06759631    -0.73400
O2411       O  0.52285366  0.44792742  0.03220431    -0.62100
O2412       O  0.52136774  0.03862204  0.03090966    -0.70500
O2413       O  0.47337659  0.03805930  0.03108527    -0.70000
O2414       O  0.47488574  0.44764047  0.03068502    -0.61300
O2415       O  0.47371358  0.49257538  0.06701719    -0.73800
O2416       O  0.47472412  0.49318860  0.99492020    -0.72600
Cu2417     Cu  0.52392459  0.49332784  0.03167679     1.04600
Cu2418     Cu  0.97254665  0.49281063  0.03091863     1.04300
C2419       C  0.49917840  0.49282427  0.98409990     0.93700
C2420       C  0.49767533  0.49364770  0.07860992     0.92900
C2421       C  0.49897724  0.43336353  0.03139313     0.85000
C2422       C  0.49715745  0.05275544  0.03070957     0.91300
O2423       O  0.51840300  0.19764253  0.02963666    -0.72500
O2424       O  0.52001965  0.28799041  0.03149395    -0.73400
O2425       O  0.51911335  0.24181140  0.06683050    -0.62100
O2426       O  0.51893446  0.24416934  0.99453712    -0.70500
O2427       O  0.47066809  0.24321807  0.99485554    -0.70000
O2428       O  0.47090305  0.24420080  0.06665056    -0.61300
O2429       O  0.47203604  0.28875712  0.03055597    -0.73800
O2430       O  0.47042823  0.19810636  0.03073101    -0.72600
Cu2431     Cu  0.52078076  0.24280991  0.03063958     1.04600
Cu2432     Cu  0.96945377  0.24359579  0.03073114     1.04300
C2433       C  0.49431870  0.18344573  0.02997578     0.93700
C2434       C  0.49624303  0.30277516  0.03100738     0.92900
C2435       C  0.49494150  0.24322912  0.07806551     0.85000
C2436       C  0.49463004  0.24413252  0.98341012     0.91300
O2437       O  0.72301260  0.49916279  0.99536874    -0.72500
O2438       O  0.72508955  0.49776657  0.06784579    -0.73400
O2439       O  0.72396589  0.04363588  0.03235407    -0.62100
O2440       O  0.72376994  0.45325651  0.03132002    -0.70500
O2441       O  0.77177473  0.45294093  0.03133103    -0.70000
O2442       O  0.77192293  0.04370545  0.03078547    -0.61300
O2443       O  0.77331576  0.49907118  0.06691541    -0.73800
O2444       O  0.77122966  0.49760077  0.99493307    -0.72600
Cu2445     Cu  0.72229728  0.49846432  0.03170527     1.04600
Cu2446     Cu  0.77368378  0.49831107  0.03092024     1.04300
C2447       C  0.74698169  0.49837482  0.98378248     0.93700
C2448       C  0.74957689  0.49844280  0.07870873     0.92900
C2449       C  0.74787661  0.05808362  0.03184368     0.85000
C2450       C  0.74768582  0.43868977  0.03160867     0.91300
O2451       O  0.77296724  0.20310286  0.03490936    -0.72500
O2452       O  0.77273240  0.29362475  0.03573326    -0.73400
O2453       O  0.77171506  0.24766784  0.07142989    -0.62100
O2454       O  0.77461858  0.24884739  0.99941005    -0.70500
O2455       O  0.72642835  0.24757132  0.99780229    -0.70000
O2456       O  0.72349452  0.24901232  0.07030451    -0.61300
O2457       O  0.72477885  0.29370523  0.03380435    -0.73800
O2458       O  0.72497391  0.20309116  0.03429886    -0.72600
Cu2459     Cu  0.77461214  0.24832912  0.03544407     1.04600
Cu2460     Cu  0.72324145  0.24836028  0.03402042     1.04300
C2461       C  0.74900922  0.18868490  0.03453040     0.93700
C2462       C  0.74876039  0.30808044  0.03459610     0.92900
C2463       C  0.74725626  0.24816576  0.08220781     0.85000
C2464       C  0.75108645  0.24817135  0.98725271     0.91300
N2465       N  0.52494968  0.46986502  0.92339793    -0.36100
N2466       N  0.48330621  0.01847641  0.92163536    -0.56700
N2467       N  0.99217432  0.02126050  0.86959451    -0.36100
N2468       N  0.03020944  0.47207197  0.87098717    -0.56700
C2469       C  0.51378233  0.46941598  0.94585559     0.27500
C2470       C  0.53502492  0.44247798  0.91864455     0.27500
C2471       C  0.97010368  0.04033511  0.87290521     0.27500
C2472       C  0.99284988  0.01449009  0.84592035     0.27500
C2473       C  0.48837719  0.01750153  0.94553729     0.36100
C2474       C  0.47266693  0.04562551  0.91718614     0.36100
C2475       C  0.04894975  0.45016823  0.87590066     0.36100
C2476       C  0.03312003  0.47819928  0.84743701     0.36100
C2477       C  0.51801987  0.44197916  0.95596305    -0.21400
C2478       C  0.53103018  0.42483335  0.93868471    -0.21400
C2479       C  0.95662378  0.04611888  0.85118565    -0.21400
C2480       C  0.97072177  0.02942937  0.83413278    -0.21400
C2481       C  0.47993730  0.04362881  0.95641075    -0.22500
C2482       C  0.47021464  0.06159683  0.93837319    -0.22500
C2483       C  0.06426467  0.44246035  0.85538774    -0.22500
C2484       C  0.05455396  0.46059103  0.83737626    -0.22500
C2485       C  0.50024110  0.49323960  0.95765978    -0.17800
C2486       C  0.04694811  0.43257785  0.89651834    -0.17800
C2487       C  0.01391224  0.49651352  0.83451781    -0.17800
C2488       C  0.96526456  0.05625923  0.89416810    -0.17800
H2489       H  0.51159668  0.43480247  0.97369063     0.15100
H2490       H  0.53670035  0.40189280  0.94072584     0.15100
H2491       H  0.93897177  0.06137245  0.84795805     0.15100
H2492       H  0.96575622  0.02905770  0.81512610     0.15100
H2493       H  0.48132381  0.04941235  0.97526291     0.13400
H2494       H  0.46240978  0.08390827  0.94059584     0.13400
H2495       H  0.07957187  0.42451035  0.85338626     0.13400
H2496       H  0.06117637  0.45961965  0.81874191     0.13400
H2497       H  0.52683044  0.48828296  0.91252784     0.26600
H2498       H  0.00828299  0.01695360  0.88221192     0.26600
N2499       N  0.47268914  0.21977125  0.92200589    -0.36100
N2500       N  0.51101961  0.27073926  0.92138747    -0.56700
N2501       N  0.00477949  0.27245563  0.86916200    -0.36100
N2502       N  0.96980476  0.22124430  0.86946211    -0.56700
C2503       C  0.48301522  0.22003096  0.94476347     0.27500
C2504       C  0.46505701  0.19172582  0.91695750     0.27500
C2505       C  0.02615076  0.29218849  0.87295503     0.27500
C2506       C  0.00470551  0.26593635  0.84542384     0.27500
C2507       C  0.50440038  0.26987615  0.94501704     0.36100
C2508       C  0.52067572  0.29823208  0.91707172     0.36100
C2509       C  0.95218562  0.19839355  0.87398074     0.36100
C2510       C  0.96630195  0.22790328  0.84606748     0.36100
C2511       C  0.48075267  0.19226435  0.95467628    -0.21400
C2512       C  0.46972483  0.17428581  0.93702674    -0.21400
C2513       C  0.03997382  0.29831994  0.85145903    -0.21400
C2514       C  0.02659820  0.28152527  0.83407067    -0.21400
C2515       C  0.51047609  0.29661306  0.95589897    -0.22500
C2516       C  0.52056805  0.31472396  0.93811694    -0.22500
C2517       C  0.93720412  0.19038490  0.85337953    -0.22500
C2518       C  0.94572731  0.20952831  0.83572155    -0.22500
C2519       C  0.49397371  0.24481933  0.95695756    -0.17800
C2520       C  0.95431505  0.18119815  0.89474392    -0.17800
C2521       C  0.98404425  0.24793054  0.83359689    -0.17800
C2522       C  0.02985184  0.30842706  0.89434346    -0.17800
H2523       H  0.48710011  0.18550892  0.97255576     0.15100
H2524       H  0.46569115  0.15095955  0.93878250     0.15100
H2525       H  0.05717259  0.31409695  0.84853066     0.15100
H2526       H  0.03182156  0.28152286  0.81512038     0.15100
H2527       H  0.50754224  0.30255425  0.97459509     0.13400
H2528       H  0.52695701  0.33743627  0.94046673     0.13400
H2529       H  0.92254932  0.17198465  0.85116612     0.13400
H2530       H  0.93869795  0.20894644  0.81716881     0.13400
H2531       H  0.46954079  0.23804671  0.91115713     0.26600
H2532       H  0.98843313  0.26762556  0.88135464     0.26600
N2533       N  0.76995622  0.47321532  0.92258833    -0.36100
N2534       N  0.72900909  0.02278097  0.92100499    -0.56700
N2535       N  0.73424161  0.02227315  0.86860149    -0.36100
N2536       N  0.77125928  0.47194756  0.87000549    -0.56700
C2537       C  0.75984012  0.47368732  0.94542262     0.27500
C2538       C  0.78054910  0.44585839  0.91842787     0.27500
C2539       C  0.71397308  0.04327043  0.87221227     0.27500
C2540       C  0.73270646  0.01401533  0.84523044     0.27500
C2541       C  0.73515334  0.02226192  0.94479587     0.36100
C2542       C  0.71975298  0.05040393  0.91618383     0.36100
C2543       C  0.79141559  0.45129476  0.87485128     0.36100
C2544       C  0.77225560  0.47672513  0.84611201     0.36100
C2545       C  0.76498137  0.44677057  0.95617334    -0.21400
C2546       C  0.77774147  0.42911056  0.93910122    -0.21400
C2547       C  0.69929922  0.04869300  0.85094921    -0.21400
C2548       C  0.71072186  0.02977216  0.83397975    -0.21400
C2549       C  0.72868054  0.04912729  0.95528379    -0.22500
C2550       C  0.71936620  0.06710827  0.93712309    -0.22500
C2551       C  0.80559276  0.44299114  0.85392136    -0.22500
C2552       C  0.79360766  0.45930049  0.83570069    -0.22500
C2553       C  0.74698974  0.49805095  0.95715107    -0.17800
C2554       C  0.79236088  0.43537613  0.89647531    -0.17800
C2555       C  0.75224665  0.49450111  0.83345561    -0.17800
C2556       C  0.71208203  0.06082902  0.89308028    -0.17800
H2557       H  0.75957603  0.44032035  0.97431555     0.15100
H2558       H  0.78404233  0.40642518  0.94171854     0.15100
H2559       H  0.68267241  0.06513471  0.84790676     0.15100
H2560       H  0.70438434  0.02868588  0.81526647     0.15100
H2561       H  0.73143967  0.05546724  0.97391594     0.13400
H2562       H  0.71338202  0.08996356  0.93925056     0.13400
H2563       H  0.82181648  0.42588926  0.85188918     0.13400
H2564       H  0.79920264  0.45765255  0.81686507     0.13400
H2565       H  0.77129713  0.49113558  0.91112902     0.26600
H2566       H  0.75091501  0.01759799  0.88057133     0.26600
N2567       N  0.73440602  0.22386319  0.92422413    -0.36100
N2568       N  0.73608123  0.22587718  0.87149759    -0.56700
N2569       N  0.77307884  0.27494817  0.87372444    -0.36100
N2570       N  0.77517537  0.27284636  0.92637355    -0.56700
C2571       C  0.72628898  0.19610920  0.91843213     0.27500
C2572       C  0.74224646  0.22385571  0.94767685     0.27500
C2573       C  0.77429188  0.26916060  0.84988686     0.27500
C2574       C  0.79544757  0.29288219  0.87906534     0.27500
C2575       C  0.71660377  0.20433245  0.87501099     0.36100
C2576       C  0.73363747  0.23401764  0.84829290     0.36100
C2577       C  0.76580703  0.27269318  0.94939702     0.36100
C2578       C  0.78623520  0.29994071  0.92252532     0.36100
C2579       C  0.72865948  0.17842066  0.93862738    -0.21400
C2580       C  0.73827281  0.19607436  0.95717645    -0.21400
C2581       C  0.79798930  0.28336327  0.83995563    -0.21400
C2582       C  0.81128707  0.29851831  0.85842406    -0.21400
C2583       C  0.70155741  0.19861655  0.85391807    -0.22500
C2584       C  0.71205387  0.21783364  0.83701021    -0.22500
C2585       C  0.77189110  0.29932461  0.96047538    -0.22500
C2586       C  0.78454044  0.31674043  0.94335826    -0.22500
C2587       C  0.71612142  0.18654508  0.89560785    -0.17800
C2588       C  0.75257745  0.24845660  0.96067868    -0.17800
C2589       C  0.79697975  0.30988257  0.90020801    -0.17800
C2590       C  0.75308183  0.25333589  0.83683192    -0.17800
H2591       H  0.72380285  0.15522666  0.93998761     0.15100
H2592       H  0.74253932  0.18909498  0.97541295     0.15100
H2593       H  0.80432099  0.28371889  0.82124224     0.15100
H2594       H  0.82945233  0.31343840  0.85669463     0.15100
H2595       H  0.68538501  0.18174225  0.85092572     0.13400
H2596       H  0.70557731  0.21877337  0.81833087     0.13400
H2597       H  0.76708304  0.30576639  0.97879271     0.13400
H2598       H  0.79139642  0.33926156  0.94597774     0.13400
H2599       H  0.73277125  0.24234410  0.91335632     0.26600
H2600       H  0.75526789  0.27149873  0.88483320     0.26600
N2601       N  0.52928131  0.47236195  0.64180471    -0.36100
N2602       N  0.98055960  0.50958587  0.64293566    -0.56700
N2603       N  0.98344069  0.51240723  0.69610214    -0.36100
N2604       N  0.53292753  0.47295565  0.69468993    -0.56700
C2605       C  0.52108688  0.46990040  0.61845204     0.27500
C2606       C  0.54941332  0.45146966  0.64606917     0.27500
C2607       C  0.95536701  0.51954042  0.69207573     0.27500
C2608       C  0.98549345  0.50432145  0.71939854     0.27500
C2609       C  0.98425483  0.50991186  0.61887226     0.36100
C2610       C  0.95881021  0.52837887  0.64805750     0.36100
C2611       C  0.55952035  0.46232850  0.68915754     0.36100
C2612       C  0.53449196  0.48221151  0.71778944     0.36100
C2613       C  0.53641155  0.44679267  0.60792799    -0.21400
C2614       C  0.55422034  0.43526164  0.62536245    -0.21400
C2615       C  0.93969802  0.51694451  0.71328408    -0.21400
C2616       C  0.95888389  0.50777192  0.73064160    -0.21400
C2617       C  0.96460850  0.52943456  0.60862548    -0.22500
C2618       C  0.94845860  0.54097991  0.62713131    -0.22500
C2619       C  0.57780513  0.46443407  0.70897368    -0.22500
C2620       C  0.56176468  0.47667469  0.72722291    -0.22500
C2621       C  0.00235573  0.48988291  0.60621254    -0.17800
C2622       C  0.56747170  0.45064652  0.66650260    -0.17800
C2623       C  0.01094258  0.49419925  0.73071948    -0.17800
C2624       C  0.94331049  0.52785530  0.66976668    -0.17800
H2625       H  0.53618180  0.43941585  0.58947899     0.15100
H2626       H  0.57007254  0.41790736  0.62280094     0.15100
H2627       H  0.91677742  0.52113710  0.71601719     0.15100
H2628       H  0.95364487  0.50330395  0.74921595     0.15100
H2629       H  0.96059173  0.53356647  0.58981396     0.13400
H2630       H  0.92982771  0.55537690  0.62530230     0.13400
H2631       H  0.60035719  0.45788228  0.71026025     0.13400
H2632       H  0.56938534  0.48135960  0.74524347     0.13400
H2633       H  0.52559125  0.49017307  0.65313303     0.26600
H2634       H  0.00053383  0.51428879  0.68399686     0.26600
N2635       N  0.51974543  0.25297463  0.64276443    -0.36100
N2636       N  0.96957131  0.28852029  0.64271076    -0.56700
N2637       N  0.96448155  0.28022441  0.69512081    -0.36100
N2638       N  0.51550664  0.24291657  0.69485599    -0.56700
C2639       C  0.51492017  0.25365516  0.61873845     0.27500
C2640       C  0.54089368  0.23309810  0.64684186     0.27500
C2641       C  0.93731057  0.28865427  0.68901095     0.27500
C2642       C  0.96255642  0.26644232  0.71658871     0.27500
C2643       C  0.97645018  0.29211885  0.61931508     0.36100
C2644       C  0.94738434  0.30686611  0.64761168     0.36100
C2645       C  0.54384040  0.23680344  0.69121591     0.36100
C2646       C  0.51275893  0.24827545  0.71862771     0.36100
C2647       C  0.53367249  0.23380643  0.60756865    -0.21400
C2648       C  0.55005294  0.22098384  0.62531743    -0.21400
C2649       C  0.91803773  0.28023835  0.70694030    -0.21400
C2650       C  0.93404840  0.26642185  0.72440108    -0.21400
C2651       C  0.95852349  0.31336934  0.60929134    -0.22500
C2652       C  0.94029560  0.32285936  0.62728277    -0.22500
C2653       C  0.55898515  0.23770911  0.71279198    -0.22500
C2654       C  0.53916601  0.24485344  0.73022676    -0.22500
C2655       C  0.99607646  0.27365470  0.60666026    -0.17800
C2656       C  0.55617479  0.23063539  0.66861300    -0.17800
C2657       C  0.98627268  0.25541306  0.72984242    -0.17800
C2658       C  0.92938872  0.30412701  0.66794224    -0.17800
H2659       H  0.53686923  0.22998512  0.58858933     0.15100
H2660       H  0.56785896  0.20572949  0.62263023     0.15100
H2661       H  0.89477199  0.28358687  0.70747950     0.15100
H2662       H  0.92565503  0.25720105  0.74087537     0.15100
H2663       H  0.95743206  0.32044776  0.59081681     0.13400
H2664       H  0.92242752  0.33816448  0.62519810     0.13400
H2665       H  0.58193777  0.23392768  0.71571348     0.13400
H2666       H  0.54376950  0.24778090  0.74915941     0.13400
H2667       H  0.51294623  0.26828410  0.65545980     0.26600
H2668       H  0.98354804  0.28586141  0.68620276     0.26600
N2669       N  0.72948164  0.46406601  0.64113648    -0.36100
N2670       N  0.78141173  0.49658343  0.64148608    -0.56700
N2671       N  0.78019656  0.49715326  0.69426639    -0.36100
N2672       N  0.72759112  0.46263023  0.69403543    -0.56700
C2673       C  0.73645834  0.46187307  0.61758009     0.27500
C2674       C  0.70852504  0.44418769  0.64554386     0.27500
C2675       C  0.80841405  0.50329584  0.69002571     0.27500
C2676       C  0.77813571  0.48916701  0.71758289     0.27500
C2677       C  0.77617273  0.49849589  0.61766352     0.36100
C2678       C  0.80506489  0.51303198  0.64601705     0.36100
C2679       C  0.69981327  0.45596791  0.68844350     0.36100
C2680       C  0.72713097  0.47318040  0.71679530     0.36100
C2681       C  0.71979652  0.43982738  0.60703217    -0.21400
C2682       C  0.70222738  0.42869411  0.62473030    -0.21400
C2683       C  0.82439644  0.49943132  0.71098045    -0.21400
C2684       C  0.80521523  0.49064485  0.72840876    -0.21400
C2685       C  0.79689558  0.51627433  0.60695986    -0.22500
C2686       C  0.81525230  0.52537970  0.62494601    -0.22500
C2687       C  0.68177478  0.46184447  0.70785884    -0.22500
C2688       C  0.69916605  0.47266599  0.72587438    -0.22500
C2689       C  0.75516215  0.48147910  0.60532892    -0.17800
C2690       C  0.69057975  0.44489601  0.66595245    -0.17800
C2691       C  0.75200064  0.48241494  0.72954170    -0.17800
C2692       C  0.82003265  0.51335133  0.66806909    -0.17800
H2693       H  0.71908411  0.43299605  0.58844422     0.15100
H2694       H  0.68536308  0.41239608  0.62225527     0.15100
H2695       H  0.84746083  0.50289483  0.71355961     0.15100
H2696       H  0.81058217  0.48588463  0.74692552     0.15100
H2697       H  0.79969903  0.52097034  0.58808483     0.13400
H2698       H  0.83456661  0.53861515  0.62265270     0.13400
H2699       H  0.65847176  0.45905249  0.70889888     0.13400
H2700       H  0.69199652  0.47982412  0.74346639     0.13400
H2701       H  0.73439765  0.48159476  0.65247827     0.26600
H2702       H  0.76288229  0.50098644  0.68263715     0.26600
N2703       N  0.71633263  0.25810286  0.64486187    -0.36100
N2704       N  0.76634894  0.29339289  0.64513937    -0.56700
N2705       N  0.77023860  0.28733838  0.69815031    -0.36100
N2706       N  0.71950081  0.25035079  0.69754820    -0.56700
C2707       C  0.72163162  0.25825901  0.62087069     0.27500
C2708       C  0.69521161  0.23829917  0.64888032     0.27500
C2709       C  0.79764184  0.29514410  0.69228058     0.27500
C2710       C  0.77139430  0.27508673  0.72030519     0.27500
C2711       C  0.76008608  0.29641890  0.62154786     0.36100
C2712       C  0.78844889  0.31169211  0.65015663     0.36100
C2713       C  0.69183459  0.24189900  0.69351407     0.36100
C2714       C  0.72173315  0.25511940  0.72148080     0.36100
C2715       C  0.70303221  0.23838873  0.60965093    -0.21400
C2716       C  0.68642345  0.22588672  0.62731881    -0.21400
C2717       C  0.81624846  0.28796109  0.71109633    -0.21400
C2718       C  0.79957065  0.27586536  0.72893069    -0.21400
C2719       C  0.77819041  0.31738297  0.61152767    -0.22500
C2720       C  0.79602056  0.32714452  0.62968853    -0.22500
C2721       C  0.67668196  0.24061552  0.71503407    -0.22500
C2722       C  0.69582121  0.24858855  0.73282205    -0.22500
C2723       C  0.74111090  0.27745559  0.60880016    -0.17800
C2724       C  0.68009348  0.23523588  0.67069436    -0.17800
C2725       C  0.74737968  0.26413187  0.73314760    -0.17800
C2726       C  0.80631842  0.30892541  0.67062187    -0.17800
H2727       H  0.70026785  0.23422618  0.59065931     0.15100
H2728       H  0.66887335  0.21041667  0.62454181     0.15100
H2729       H  0.83950897  0.29103492  0.71204864     0.15100
H2730       H  0.80743964  0.26796561  0.74605694     0.15100
H2731       H  0.77970669  0.32407313  0.59298425     0.13400
H2732       H  0.81399257  0.34225007  0.62767531     0.13400
H2733       H  0.65420390  0.23455018  0.71772023     0.13400
H2734       H  0.69107641  0.24987435  0.75183484     0.13400
H2735       H  0.72310152  0.27337853  0.65754659     0.26600
H2736       H  0.75153069  0.29219099  0.68840276     0.26600
C2737       C  0.89829659  0.31087093  0.66472487    -0.05000
C2738       C  0.88458040  0.33240293  0.67890376    -0.32400
C2739       C  0.85417883  0.33357870  0.68000948     0.36800
C2740       C  0.83773144  0.31313135  0.66674590    -0.05300
C2741       C  0.85161231  0.29320278  0.65130542    -0.32300
C2742       C  0.88166075  0.29200206  0.65017723     0.36800
H2743       H  0.89739850  0.34688160  0.69020205     0.17100
O2744       O  0.84071593  0.35365307  0.69475958    -0.59800
H2745       H  0.83905440  0.27722894  0.64119008     0.17100
O2746       O  0.89464146  0.27028859  0.63673075    -0.59900
H2747       H  0.89448505  0.27769354  0.61999506     0.44100
H2748       H  0.84454479  0.34686005  0.71137827     0.44100
C2749       C  0.58800206  0.22928312  0.66692224    -0.05000
C2750       C  0.60367931  0.20503480  0.67556137    -0.32400
C2751       C  0.63405753  0.20601168  0.67637758     0.36800
C2752       C  0.64849026  0.23147201  0.66864177    -0.05300
C2753       C  0.63272249  0.25511451  0.65929886    -0.32300
C2754       C  0.60269678  0.25421786  0.65847537     0.36800
H2755       H  0.59232732  0.18592208  0.68225427     0.17100
O2756       O  0.64932687  0.18270328  0.68554841    -0.59800
H2757       H  0.64381659  0.27474950  0.65328427     0.17100
O2758       O  0.58774138  0.27822667  0.65009442    -0.59900
H2759       H  0.58345125  0.29034001  0.66453468     0.44100
H2760       H  0.65650819  0.17168267  0.67132947     0.44100
C2761       C  0.91152379  0.52627403  0.66751281    -0.05000
C2762       C  0.89360480  0.04943935  0.67482796    -0.32400
C2763       C  0.86339769  0.04585420  0.67476523     0.36800
C2764       C  0.85139052  0.51913809  0.66711735    -0.05300
C2765       C  0.86940030  0.49622535  0.65940414    -0.32300
C2766       C  0.89931062  0.49963410  0.65956712     0.36800
H2767       H  0.90302991  0.06988441  0.68110677     0.17100
O2768       O  0.84577966  0.06844509  0.68223737    -0.59800
H2769       H  0.86016257  0.47538016  0.65380227     0.17100
O2770       O  0.91664815  0.47630022  0.65314049    -0.59900
H2771       H  0.91875026  0.47770532  0.63545577     0.44100
H2772       H  0.84321725  0.06541804  0.69973589     0.44100
C2773       C  0.59845029  0.44413993  0.66226289    -0.05000
C2774       C  0.61430975  0.96522066  0.64970382    -0.32400
C2775       C  0.64442032  0.96420416  0.64949918     0.36800
C2776       C  0.65908794  0.44166108  0.66181347    -0.05300
C2777       C  0.64322621  0.41912549  0.67282273    -0.32300
C2778       C  0.61279453  0.42018154  0.67293501     0.36800
H2779       H  0.60334660  0.98367366  0.64136665     0.17100
O2780       O  0.65947177  0.98642668  0.63853488    -0.59800
H2781       H  0.65443964  0.40177752  0.68237658     0.17100
O2782       O  0.59738685  0.39905947  0.68487497    -0.59900
H2783       H  0.59372745  0.38345444  0.67274455     0.44100
H2784       H  0.66292588  0.00130665  0.65130307     0.44100
C2785       C  0.75216085  0.25608501  0.81020537    -0.05000
C2786       C  0.73994915  0.28127913  0.79976704    -0.32400
C2787       C  0.73852593  0.28412534  0.77472330     0.36800
C2788       C  0.74933659  0.26159281  0.75976647    -0.05300
C2789       C  0.76171123  0.23646760  0.77020140    -0.32300
C2790       C  0.76319402  0.23365024  0.79526161     0.36800
H2791       H  0.73134118  0.29865637  0.81109887     0.17100
O2792       O  0.72594072  0.30868880  0.76497303    -0.59800
H2793       H  0.77022878  0.21906016  0.75886088     0.17100
O2794       O  0.77598429  0.20921521  0.80504801    -0.59900
H2795       H  0.76020658  0.19450253  0.80627953     0.44100
H2796       H  0.74223492  0.32245662  0.76212465     0.44100
C2797       C  0.79761173  0.40335953  0.89429258    -0.05000
C2798       C  0.82134090  0.38953674  0.90554563    -0.32400
C2799       C  0.82269842  0.35871316  0.90665473     0.36800
C2800       C  0.80000914  0.34189715  0.89664343    -0.05300
C2801       C  0.77743194  0.35587845  0.88425826    -0.32300
C2802       C  0.77605970  0.38624233  0.88309078     0.36800
H2803       H  0.83795464  0.40262356  0.91428057     0.17100
O2804       O  0.84523349  0.34538366  0.91854582    -0.59800
H2805       H  0.75988629  0.34311867  0.87645474     0.17100
O2806       O  0.75265242  0.39913537  0.87199714    -0.59900
H2807       H  0.73803259  0.40209006  0.88486114     0.44100
H2808       H  0.85799097  0.33733684  0.90574682     0.44100
C2809       C  0.70898283  0.09302733  0.88968739    -0.05000
C2810       C  0.68597706  0.10897114  0.90011785    -0.32400
C2811       C  0.68703370  0.13980529  0.90123069     0.36800
C2812       C  0.71114570  0.15470926  0.89170048    -0.05300
C2813       C  0.73283781  0.13882188  0.87969279    -0.32300
C2814       C  0.73200770  0.10827592  0.87876968     0.36800
H2815       H  0.66817845  0.09744505  0.90858404     0.17100
O2816       O  0.66540776  0.15502063  0.91280397    -0.59800
H2817       H  0.75141042  0.15013793  0.87218130     0.17100
O2818       O  0.75479966  0.09337484  0.86844993    -0.59900
H2819       H  0.76873935  0.08978051  0.88172630     0.44100
H2820       H  0.65204109  0.16155055  0.89989270     0.44100
C2821       C  0.75117794  0.49189278  0.80676246    -0.05000
C2822       C  0.74305695  0.46511083  0.79605352    -0.32400
C2823       C  0.74304786  0.46173138  0.77100502     0.36800
C2824       C  0.75084152  0.48551712  0.75623648    -0.05300
C2825       C  0.75868058  0.01236431  0.76702466    -0.32300
C2826       C  0.75908332  0.01561680  0.79205967     0.36800
H2827       H  0.73724645  0.44659092  0.80721867     0.17100
O2828       O  0.73686843  0.43474768  0.76112993    -0.59800
H2829       H  0.76494612  0.03077827  0.75591331     0.17100
O2830       O  0.76843121  0.04157306  0.80204273    -0.59900
H2831       H  0.75243113  0.05581268  0.79933413     0.44100
H2832       H  0.71575341  0.43180436  0.76368847     0.44100
C2833       C  0.98233826  0.24908081  0.80695033    -0.05000
C2834       C  0.49001245  0.22439509  0.79319196    -0.32400
C2835       C  0.49037899  0.22577228  0.76805847     0.36800
C2836       C  0.98362921  0.25237461  0.75640150    -0.05300
C2837       C  0.97528888  0.27686166  0.77024914    -0.32300
C2838       C  0.97420702  0.27521615  0.79528910     0.36800
H2839       H  0.49600273  0.20405966  0.80198558     0.17100
O2840       O  0.49675526  0.20094029  0.75495087    -0.59800
H2841       H  0.96997666  0.29746816  0.76158817     0.17100
O2842       O  0.96593206  0.29950790  0.80829436    -0.59900
H2843       H  0.94501205  0.29652047  0.81178605     0.44100
H2844       H  0.51744230  0.19643325  0.75840291     0.44100
C2845       C  0.04708973  0.40051270  0.89232445    -0.05000
C2846       C  0.02242912  0.38880209  0.88110633    -0.32400
C2847       C  0.01751520  0.35875530  0.88099171     0.36800
C2848       C  0.03769448  0.33974453  0.89185155    -0.05300
C2849       C  0.56335189  0.35115507  0.90188846    -0.32300
C2850       C  0.56817827  0.38161707  0.90210736     0.36800
H2851       H  0.00595502  0.40327149  0.87372795     0.17100
O2852       O  0.99210657  0.34822358  0.87131900    -0.59800
H2853       H  0.57894274  0.33658518  0.91030291     0.17100
O2854       O  0.59244142  0.39281695  0.91311977    -0.59900
H2855       H  0.60805583  0.39132539  0.90091775     0.44100
H2856       H  0.97857993  0.34637651  0.88507496     0.44100
C2857       C  0.95987698  0.08796252  0.89146048    -0.05000
C2858       C  0.48378801  0.10538569  0.88556717    -0.32400
C2859       C  0.48131175  0.13575715  0.88535773     0.36800
C2860       C  0.95462111  0.14911627  0.89116115    -0.05300
C2861       C  0.93015666  0.13175959  0.89594447    -0.32300
C2862       C  0.93266354  0.10102328  0.89589367     0.36800
H2863       H  0.50475425  0.09536119  0.88199966     0.17100
O2864       O  0.50539612  0.15245176  0.88048894    -0.59800
H2865       H  0.90958869  0.14203073  0.90039611     0.17100
O2866       O  0.90891548  0.08405052  0.90101413    -0.59900
H2867       H  0.90104194  0.07800128  0.88515482     0.44100
H2868       H  0.51557086  0.15476333  0.89610922     0.44100
C2869       C  0.01423516  0.49539575  0.80783915    -0.05000
C2870       C  0.02251504  0.02042451  0.79480612    -0.32400
C2871       C  0.52102928  0.02031302  0.76967130     0.36800
C2872       C  0.01238406  0.49474518  0.75731638    -0.05300
C2873       C  0.00430733  0.46974755  0.77030543    -0.32300
C2874       C  0.00491344  0.47004335  0.79545097     0.36800
H2875       H  0.52907949  0.04018920  0.80417685     0.17100
O2876       O  0.52840014  0.04517416  0.75727863    -0.59800
H2877       H  0.99702031  0.45019471  0.76089771     0.17100
O2878       O  0.99516661  0.44601304  0.80785029    -0.59900
H2879       H  0.01105209  0.43132037  0.80678117     0.44100
H2880       H  0.51015920  0.05674475  0.75611930     0.44100
C2881       C  0.74758875  0.40521906  0.03242286    -0.05000
C2882       C  0.77352186  0.38917551  0.02889747    -0.32400
C2883       C  0.77422974  0.35805539  0.02955354     0.36800
C2884       C  0.74870152  0.34156557  0.03400665    -0.05300
C2885       C  0.72274459  0.35759817  0.03760450    -0.32300
C2886       C  0.72204261  0.38874694  0.03698315     0.36800
H2887       H  0.79356536  0.40080525  0.02536800     0.17100
O2888       O  0.80021448  0.34405684  0.02562110    -0.59800
H2889       H  0.70271513  0.34593956  0.04114027     0.17100
O2890       O  0.69606314  0.40275297  0.04096424    -0.59900
H2891       H  0.69525856  0.40606435  0.05857547     0.44100
H2892       H  0.80174374  0.34207583  0.00791538     0.44100
C2893       C  0.74781743  0.09155831  0.03267382    -0.05000
C2894       C  0.77415628  0.10725259  0.03448833    -0.32400
C2895       C  0.77489036  0.13835936  0.03550115     0.36800
C2896       C  0.74896879  0.15520589  0.03421616    -0.05300
C2897       C  0.72260429  0.13951552  0.03254970    -0.32300
C2898       C  0.72182926  0.10838413  0.03201146     0.36800
H2899       H  0.79453419  0.09534425  0.03534913     0.17100
O2900       O  0.80132591  0.15195775  0.03766721    -0.59800
H2901       H  0.70222654  0.15142634  0.03166906     0.17100
O2902       O  0.69534191  0.09475514  0.03046371    -0.59900
H2903       H  0.68805990  0.09395295  0.04721444     0.44100
H2904       H  0.80515530  0.15292135  0.05519539     0.44100
C2905       C  0.49886616  0.39986991  0.03122778    -0.05000
C2906       C  0.97238463  0.38446137  0.03113888    -0.32400
C2907       C  0.97121302  0.35339274  0.03086752     0.36800
C2908       C  0.49685113  0.33623177  0.03094424    -0.05300
C2909       C  0.52349893  0.35160170  0.03094848    -0.32300
C2910       C  0.52467513  0.38275569  0.03112673     0.36800
H2911       H  0.95208874  0.39655666  0.03121378     0.17100
O2912       O  0.94449483  0.34012524  0.03073610    -0.59800
H2913       H  0.54375432  0.33942667  0.03083114     0.17100
O2914       O  0.55134951  0.39612041  0.03082757    -0.59900
H2915       H  0.55790597  0.39634585  0.04780591     0.44100
H2916       H  0.93944806  0.33770630  0.01351017     0.44100
C2917       C  0.49654391  0.08624136  0.03001092    -0.05000
C2918       C  0.46988865  0.10173014  0.02964689    -0.32400
C2919       C  0.46869280  0.13288726  0.02923025     0.36800
C2920       C  0.49447414  0.14993017  0.02959450    -0.05300
C2921       C  0.52106658  0.13439911  0.02958040    -0.32300
C2922       C  0.52227221  0.10330144  0.02955625     0.36800
H2923       H  0.44963982  0.08963631  0.02963792     0.17100
O2924       O  0.44200104  0.14631389  0.02865197    -0.59800
H2925       H  0.54134854  0.14642833  0.02957623     0.17100
O2926       O  0.54899497  0.08992231  0.02933809    -0.59900
H2927       H  0.55478443  0.08928050  0.01218264     0.44100
H2928       H  0.43745577  0.14869761  0.01134453     0.44100
C2929       C  0.83874752  0.27010685  0.53455340    -0.05000
C2930       C  0.85440661  0.29666319  0.53203576    -0.32400
C2931       C  0.88534901  0.29748746  0.53109933     0.36800
C2932       C  0.90229069  0.27142106  0.53283834    -0.05300
C2933       C  0.88661268  0.24485538  0.53513434    -0.32300
C2934       C  0.85568632  0.24399824  0.53578193     0.36800
H2935       H  0.84258457  0.31719187  0.53059287     0.17100
O2936       O  0.89867997  0.32408474  0.52781025    -0.59800
H2937       H  0.89841211  0.22429572  0.53639236     0.17100
O2938       O  0.84235435  0.21720494  0.53773819    -0.59900
H2939       H  0.83989839  0.21012758  0.52096963     0.44100
H2940       H  0.89930450  0.33334696  0.54396053     0.44100
C2941       C  0.58874346  0.26984613  0.53225062    -0.05000
C2942       C  0.60490060  0.29566049  0.52776101    -0.32400
C2943       C  0.63586383  0.29595123  0.52761220     0.36800
C2944       C  0.65236146  0.27015432  0.53239836    -0.05300
C2945       C  0.63620433  0.24426528  0.53661967    -0.32300
C2946       C  0.60523424  0.24392747  0.53658902     0.36800
H2947       H  0.59345682  0.31599535  0.52414576     0.17100
O2948       O  0.64968139  0.32191864  0.52277759    -0.59800
H2949       H  0.64764782  0.22391690  0.54018195     0.17100
O2950       O  0.59140232  0.21781116  0.54083952    -0.59900
H2951       H  0.58923574  0.21685353  0.55853921     0.44100
H2952       H  0.65178596  0.32230367  0.50505295     0.44100
C2953       C  0.90809578  0.49178693  0.53137630    -0.05000
C2954       C  0.89238013  0.46531415  0.52851225    -0.32400
C2955       C  0.86147622  0.46441918  0.52814542     0.36800
C2956       C  0.84447391  0.49035800  0.53071772    -0.05300
C2957       C  0.86011272  0.01683985  0.53364981    -0.32300
C2958       C  0.89112213  0.01769781  0.53413733     0.36800
H2959       H  0.90414804  0.44481629  0.52646041     0.17100
O2960       O  0.84820569  0.43764563  0.52551947    -0.59800
H2961       H  0.84826162  0.03728255  0.53576621     0.17100
O2962       O  0.90452958  0.04431015  0.53735164    -0.59900
H2963       H  0.90540297  0.04723699  0.55500971     0.44100
H2964       H  0.84708916  0.43425554  0.50793232     0.44100
C2965       C  0.59451801  0.48851224  0.53230457    -0.05000
C2966       C  0.61032459  0.46178176  0.53167483    -0.32400
C2967       C  0.64131286  0.46091269  0.53184313     0.36800
C2968       C  0.65808416  0.48710733  0.53265250    -0.05300
C2969       C  0.64221380  0.01369838  0.53342683    -0.32300
C2970       C  0.61131575  0.01458229  0.53312692     0.36800
H2971       H  0.59860015  0.44117790  0.53100038     0.17100
O2972       O  0.65487170  0.43407412  0.53092401    -0.59800
H2973       H  0.65385943  0.03434922  0.53406722     0.17100
O2974       O  0.59787636  0.04149779  0.53380555    -0.59900
H2975       H  0.59610254  0.04753397  0.51676957     0.50500
H2976       H  0.65683239  0.42789539  0.54791075     0.44100
C2977       C  0.90410220  0.21673072  0.40102202    -0.05000
C2978       C  0.88939925  0.24206943  0.40855077    -0.32400
C2979       C  0.85936985  0.24248131  0.40964228     0.36800
C2980       C  0.84361360  0.21734219  0.40296565    -0.05300
C2981       C  0.85820050  0.19149309  0.39610735    -0.32300
C2982       C  0.88861172  0.19110264  0.39511557     0.36800
H2983       H  0.90135348  0.26190843  0.41293415     0.17100
O2984       O  0.84539823  0.26809513  0.41585099    -0.59800
H2985       H  0.84600545  0.17212890  0.39091837     0.17100
O2986       O  0.90293493  0.16599397  0.38819926    -0.59900
H2987       H  0.90516488  0.16759900  0.37053779     0.44100
H2988       H  0.84554207  0.26854374  0.43366919     0.44100
C2989       C  0.58915024  0.29951330  0.39829480    -0.05000
C2990       C  0.60674389  0.32094954  0.38765085    -0.32400
C2991       C  0.63698907  0.31753284  0.38777235     0.36800
C2992       C  0.64936200  0.29274958  0.39880549    -0.05300
C2993       C  0.63181320  0.27255528  0.41076643    -0.32300
C2994       C  0.60187443  0.27578658  0.41059855     0.36800
H2995       H  0.59698404  0.33925689  0.37820674     0.17100
O2996       O  0.65422538  0.33787462  0.37664878    -0.59800
H2997       H  0.64136855  0.25346157  0.41931238     0.17100
O2998       O  0.58503686  0.25428693  0.42071562    -0.59900
H2999       H  0.58328000  0.25989177  0.43789866     0.44100
H3000       H  0.65440325  0.33205937  0.35945013     0.44100
C3001       C  0.90352284  0.02813356  0.39997321    -0.05000
C3002       C  0.89039465  0.05470461  0.39330834    -0.32400
C3003       C  0.86008518  0.05715558  0.39333912     0.36800
C3004       C  0.84321220  0.53271366  0.39997255    -0.05300
C3005       C  0.85653730  0.50666029  0.40752591    -0.32300
C3006       C  0.88652658  0.50424490  0.40768759     0.36800
H3007       H  0.90356704  0.07300340  0.38741837     0.17100
O3008       O  0.84705729  0.08293015  0.38649468    -0.59800
H3009       H  0.84351125  0.48777767  0.41240645     0.17100
O3010       O  0.89916577  0.47797637  0.41384317    -0.59900
H3011       H  0.90365371  0.47980266  0.43122070     0.44100
H3012       H  0.84745042  0.08269124  0.36868397     0.44100
C3013       C  0.65551510  0.45122509  0.39680731    -0.05000
C3014       C  0.64009750  0.97367086  0.40847191    -0.32400
C3015       C  0.61003230  0.97373581  0.40840910     0.36800
C3016       C  0.59491374  0.95111279  0.39654606    -0.05300
C3017       C  0.61013620  0.42764772  0.38598075    -0.32300
C3018       C  0.64059843  0.42763586  0.38603652     0.36800
H3019       H  0.65150681  0.99200626  0.41665371     0.17100
O3020       O  0.59550953  0.99715627  0.41842712    -0.59800
H3021       H  0.59844931  0.41007798  0.37702240     0.17100
O3022       O  0.65562239  0.40516356  0.37515243    -0.59900
H3023       H  0.65269426  0.40791860  0.35765881     0.44100
H3024       H  0.59508910  0.99315442  0.43592645     0.44100
C3025       C  0.74468687  0.24559608  0.25937338    -0.05000
C3026       C  0.75352277  0.27046357  0.27247787    -0.32400
C3027       C  0.75376880  0.27017962  0.29763726     0.36800
C3028       C  0.74500715  0.24485070  0.31007520    -0.05300
C3029       C  0.73645069  0.21984808  0.29704800    -0.32300
C3030       C  0.73619735  0.22011966  0.27184467     0.36800
H3031       H  0.76030909  0.29011076  0.26312234     0.17100
O3032       O  0.76233993  0.29484114  0.30999363    -0.59800
H3033       H  0.72975301  0.20021827  0.30646905     0.17100
O3034       O  0.72770605  0.19540053  0.25952532    -0.59900
H3035       H  0.70650614  0.19780698  0.25698560     0.44100
H3036       H  0.78372566  0.29292730  0.31168569     0.44100
C3037       C  0.70628310  0.40461850  0.17187302    -0.05000
C3038       C  0.68430624  0.38924484  0.15964877    -0.32400
C3039       C  0.68309985  0.35846874  0.16089564     0.36800
C3040       C  0.70394441  0.34319241  0.17458964    -0.05300
C3041       C  0.72432023  0.35885091  0.18819604    -0.32300
C3042       C  0.72565956  0.38927291  0.18690991     0.36800
H3043       H  0.66909411  0.40096362  0.14830182     0.17100
O3044       O  0.66246735  0.34339080  0.14799786    -0.59800
H3045       H  0.74064609  0.34726572  0.19857307     0.17100
O3046       O  0.74762831  0.40367753  0.19878282    -0.59900
H3047       H  0.74146077  0.40449048  0.21584541     0.44100
H3048       H  0.66873175  0.34452696  0.13098883     0.44100
C3049       C  0.79431670  0.09284542  0.17214431    -0.05000
C3050       C  0.81616083  0.10876466  0.16036186    -0.32400
C3051       C  0.81586968  0.13963202  0.16097009     0.36800
C3052       C  0.79376637  0.15439753  0.17370331    -0.05300
C3053       C  0.77373277  0.13832489  0.18713921    -0.32300
C3054       C  0.77380899  0.10787019  0.18642818     0.36800
H3055       H  0.83228044  0.09733853  0.14963539     0.17100
O3056       O  0.83634396  0.15518544  0.14845471    -0.59800
H3057       H  0.75653457  0.14950415  0.19688634     0.17100
O3058       O  0.75194228  0.09303613  0.19788821    -0.59900
H3059       H  0.75767555  0.09270885  0.21506793     0.44100
H3060       H  0.83121319  0.15266531  0.13126214     0.44100
C3061       C  0.74902980  0.49758000  0.30613869    -0.05000
C3062       C  0.74386738  0.02412424  0.29409938    -0.32400
C3063       C  0.74385707  0.02508561  0.26894860     0.36800
C3064       C  0.74924917  0.49927667  0.25556994    -0.05300
C3065       C  0.75482076  0.47283011  0.26768047    -0.32300
C3066       C  0.75448602  0.47182606  0.29279910     0.36800
H3067       H  0.73951901  0.04401327  0.30427554     0.17100
O3068       O  0.73759460  0.05102495  0.25755938    -0.59800
H3069       H  0.75923227  0.45289553  0.25757342     0.17100
O3070       O  0.76008457  0.44576373  0.30420770    -0.59900
H3071       H  0.74094930  0.43591750  0.30554296     0.44100
H3072       H  0.75512237  0.06343291  0.25968274     0.44100
C3073       C  0.99668482  0.25200610  0.30618572    -0.05000
C3074       C  0.49924907  0.27784115  0.29274242    -0.32400
C3075       C  0.49830854  0.27707497  0.26755556     0.36800
C3076       C  0.99461859  0.25010115  0.25537643    -0.05300
C3077       C  0.99176455  0.22426001  0.26888993    -0.32300
C3078       C  0.99312239  0.22501197  0.29403684     0.36800
H3079       H  0.50201852  0.29876278  0.30184186     0.17100
O3080       O  0.50207818  0.30262742  0.25493889    -0.59800
H3081       H  0.98894210  0.20330644  0.25985258     0.17100
O3082       O  0.99209160  0.19916731  0.30661423    -0.59900
H3083       H  0.97166717  0.19239548  0.30541128     0.44100
H3084       H  0.48374630  0.31383438  0.25701283     0.44100
C3085       C  0.94826953  0.33838153  0.16936889    -0.05000
C3086       C  0.47000189  0.35303154  0.18229724    -0.32400
C3087       C  0.47147374  0.38344698  0.18219188     0.36800
C3088       C  0.95057842  0.39980844  0.16943129    -0.05300
C3089       C  0.92746205  0.38533316  0.15790941    -0.32300
C3090       C  0.92621674  0.35454204  0.15783971     0.36800
H3091       H  0.48714420  0.34073392  0.19112179     0.17100
O3092       O  0.49446743  0.39701671  0.19337116    -0.59800
H3093       H  0.91140100  0.39783568  0.14800994     0.17100
O3094       O  0.90476555  0.34049897  0.14511855    -0.59900
H3095       H  0.89110769  0.33300729  0.15740339     0.44100
H3096       H  0.50957919  0.39898894  0.18079665     0.44100
C3097       C  0.03695625  0.15145701  0.17252156    -0.05000
C3098       C  0.01477854  0.13623330  0.18422346    -0.32400
C3099       C  0.01421634  0.10575028  0.18388737     0.36800
C3100       C  0.03639018  0.08997301  0.17209376    -0.05300
C3101       C  0.55973425  0.10511171  0.16174321    -0.32300
C3102       C  0.56010512  0.13592068  0.16192243     0.36800
H3103       H  0.99679500  0.14811096  0.19230562     0.17100
O3104       O  0.99102564  0.09151099  0.19400895    -0.59800
H3105       H  0.57681114  0.09306857  0.15259948     0.17100
O3106       O  0.58200107  0.15058924  0.15041710    -0.59900
H3107       H  0.59468227  0.15824628  0.16342942     0.44100
H3108       H  0.97673233  0.08904594  0.18080105     0.44100
C3109       C  0.99537664  0.98880293  0.30598432    -0.05000
C3110       C  0.98709145  0.01511772  0.29471412    -0.32400
C3111       C  0.98564691  0.01694241  0.26965024     0.36800
C3112       C  0.99337598  0.99250606  0.25541614    -0.05300
C3113       C  0.50106725  0.46612610  0.26657278    -0.32300
C3114       C  0.50190143  0.46406757  0.29166447     0.36800
H3115       H  0.98165126  0.03429142  0.30543879     0.17100
O3116       O  0.97684490  0.04271471  0.25919366    -0.59800
H3117       H  0.50647066  0.44699779  0.25577599     0.17100
O3118       O  0.50809086  0.43752611  0.30213408    -0.59900
H3119       H  0.52899343  0.43389592  0.29893727     0.44100
H3120       H  0.95545091  0.04097056  0.25756980     0.44100
N3121       N  0.51566200  0.51936657  0.14092563    -0.36100
N3122       N  0.47677283  0.96868096  0.13988701    -0.56700
N3123       N  0.97668691  0.96901675  0.19221864    -0.36100
N3124       N  0.01192335  0.51983630  0.19358878    -0.56700
C3125       C  0.50766369  0.51859013  0.11752816     0.27500
C3126       C  0.52351551  0.54735912  0.14604837     0.27500
C3127       C  0.95606745  0.94895687  0.18714089     0.27500
C3128       C  0.97388648  0.97627164  0.21567678     0.27500
C3129       C  0.48593715  0.96886877  0.11684833     0.36100
C3130       C  0.46704049  0.94117524  0.14405982     0.36100
C3131       C  0.03163445  0.54111619  0.18986882     0.36100
C3132       C  0.01289899  0.51345229  0.21722174     0.36100
C3133       C  0.51153501  0.54603274  0.10736316    -0.21400
C3134       C  0.52115779  0.56431993  0.12543727    -0.21400
C3135       C  0.93971890  0.94341437  0.20750083    -0.21400
C3136       C  0.95080687  0.96093329  0.22553132    -0.21400
C3137       C  0.48128878  0.94174393  0.10612091    -0.22500
C3138       C  0.46964615  0.92402597  0.12347980    -0.22500
C3139       C  0.04528269  0.54848010  0.21127250    -0.22500
C3140       C  0.03370270  0.53058519  0.22860677    -0.22500
C3141       C  0.49739016  0.99361489  0.10515300    -0.17800
C3142       C  0.53279076  0.55792675  0.16878346    -0.17800
C3143       C  0.99330255  0.49428775  0.22871341    -0.17800
C3144       C  0.95582848  0.93148950  0.16624134    -0.17800
H3145       H  0.50716614  0.55240001  0.08899235     0.15100
H3146       H  0.52575130  0.58749979  0.12351179     0.15100
H3147       H  0.92252650  0.92738553  0.20936755     0.15100
H3148       H  0.94351003  0.96138512  0.24400319     0.15100
H3149       H  0.48628025  0.93526319  0.08784546     0.13400
H3150       H  0.46385754  0.90115803  0.12112231     0.13400
H3151       H  0.06106495  0.56575696  0.21416916     0.13400
H3152       H  0.03913236  0.53103787  0.24752296     0.13400
H3153       H  0.51734061  0.50134940  0.15228678     0.26600
H3154       H  0.99459793  0.97323576  0.18142467     0.26600
N3155       N  0.51378808  0.72007203  0.14054116    -0.36100
N3156       N  0.47364988  0.76929627  0.13917021    -0.56700
N3157       N  0.97595129  0.77136964  0.19192277    -0.36100
N3158       N  0.01253633  0.72219191  0.19337605    -0.56700
C3159       C  0.50463505  0.71954431  0.11743943     0.27500
C3160       C  0.52140941  0.69228818  0.14630076     0.27500
C3161       C  0.95346686  0.78913067  0.18650680     0.27500
C3162       C  0.97367388  0.76442720  0.21544845     0.27500
C3163       C  0.48317358  0.76905241  0.11621018     0.36100
C3164       C  0.46391249  0.79683983  0.14347916     0.36100
C3165       C  0.03257247  0.70120350  0.18934911     0.36100
C3166       C  0.01492158  0.73000967  0.21671468     0.36100
C3167       C  0.50706644  0.69138288  0.10813872    -0.21400
C3168       C  0.51726249  0.67401969  0.12648680    -0.21400
C3169       C  0.93645737  0.79356923  0.20672824    -0.21400
C3170       C  0.94901245  0.77756717  0.22500252    -0.21400
C3171       C  0.47881026  0.79618567  0.10564976    -0.22500
C3172       C  0.46696747  0.81399803  0.12306992    -0.22500
C3173       C  0.04801984  0.69555690  0.21020431    -0.22500
C3174       C  0.03721121  0.71429026  0.22750697    -0.22500
C3175       C  0.49476058  0.74414838  0.10457658    -0.17800
C3176       C  0.03262524  0.68323900  0.16876303    -0.17800
C3177       C  0.99478950  0.74852552  0.22858166    -0.17800
C3178       C  0.95237990  0.80648428  0.16571327    -0.17800
H3179       H  0.50148944  0.68403055  0.09018948     0.15100
H3180       H  0.52126064  0.65061479  0.12524593     0.15100
H3181       H  0.91779601  0.80797406  0.20833083     0.15100
H3182       H  0.94154298  0.77671317  0.24341010     0.15100
H3183       H  0.48418804  0.80260631  0.08749424     0.13400
H3184       H  0.46141297  0.83694251  0.12087130     0.13400
H3185       H  0.06456293  0.67891559  0.21280831     0.13400
H3186       H  0.04409419  0.71518116  0.24608689     0.13400
H3187       H  0.01648507  0.73878527  0.15115614     0.26600
H3188       H  0.99427897  0.76862956  0.18119441     0.26600
N3189       N  0.73085371  0.97375500  0.14052838    -0.36100
N3190       N  0.77048624  0.52362947  0.14052387    -0.56700
N3191       N  0.76737812  0.52421346  0.19297028    -0.36100
N3192       N  0.73074783  0.97495194  0.19302187    -0.56700
C3193       C  0.74034718  0.97379640  0.11755790     0.27500
C3194       C  0.72263677  0.94593669  0.14566904     0.27500
C3195       C  0.78919584  0.54299650  0.18834022     0.27500
C3196       C  0.76950309  0.51656156  0.21635183     0.27500
C3197       C  0.76217498  0.52328262  0.11721267     0.36100
C3198       C  0.78001272  0.55118759  0.14517490     0.36100
C3199       C  0.71037280  0.95456734  0.18843182     0.36100
C3200       C  0.72847983  0.98194482  0.21650010     0.36100
C3201       C  0.73744830  0.94595071  0.10766479    -0.21400
C3202       C  0.72671825  0.92820220  0.12554663    -0.21400
C3203       C  0.80558124  0.54743961  0.20894524    -0.21400
C3204       C  0.79337725  0.53034333  0.22661992    -0.21400
C3205       C  0.76736237  0.55032608  0.10675664    -0.22500
C3206       C  0.77825528  0.56819078  0.12458154    -0.22500
C3207       C  0.69468962  0.94865861  0.20909496    -0.22500
C3208       C  0.70601468  0.96629012  0.22691315    -0.22500
C3209       C  0.75063980  0.99867120  0.10522399    -0.17800
C3210       C  0.71102392  0.93651168  0.16790159    -0.17800
C3211       C  0.74879332  0.99963794  0.22881781    -0.17800
C3212       C  0.79009129  0.56093596  0.16787846    -0.17800
H3213       H  0.74300828  0.93904011  0.08960367     0.15100
H3214       H  0.72228868  0.90495049  0.12375539     0.15100
H3215       H  0.82351517  0.56256425  0.21121870     0.15100
H3216       H  0.80044612  0.52927925  0.24514672     0.15100
H3217       H  0.76304138  0.55672441  0.08838702     0.13400
H3218       H  0.78401331  0.59106659  0.12249061     0.13400
H3219       H  0.67804776  0.93211785  0.21133207     0.13400
H3220       H  0.69942523  0.96646360  0.24556460     0.13400
H3221       H  0.72813856  0.99223692  0.15139769     0.26600
H3222       H  0.74938352  0.52121292  0.18189029     0.26600
N3223       N  0.72746428  0.77317738  0.14410046    -0.36100
N3224       N  0.72745879  0.77229755  0.19689866    -0.56700
N3225       N  0.76359695  0.72218771  0.19637722    -0.36100
N3226       N  0.76653330  0.72288781  0.14376612    -0.56700
C3227       C  0.72089984  0.80138180  0.14959544     0.27500
C3228       C  0.73760422  0.77293241  0.12128540     0.27500
C3229       C  0.76495953  0.72905492  0.22003303     0.27500
C3230       C  0.78539837  0.70317699  0.19170657     0.27500
C3231       C  0.70846516  0.79419772  0.19261943     0.36100
C3232       C  0.72521392  0.76563450  0.22043827     0.36100
C3233       C  0.75709137  0.72272665  0.12075163     0.36100
C3234       C  0.77559622  0.69524193  0.14839294     0.36100
C3235       C  0.72706166  0.81912537  0.12995428    -0.21400
C3236       C  0.73708920  0.80102279  0.11193838    -0.21400
C3237       C  0.78824246  0.71448547  0.23047282    -0.21400
C3238       C  0.80105572  0.69796061  0.21256510    -0.21400
C3239       C  0.69374838  0.80146457  0.21355330    -0.22500
C3240       C  0.70414626  0.78308367  0.23117923    -0.22500
C3241       C  0.76060059  0.69519226  0.11052289    -0.22500
C3242       C  0.77191674  0.67757726  0.12817872    -0.22500
C3243       C  0.70889108  0.81136356  0.17161522    -0.17800
C3244       C  0.74672548  0.74770593  0.10870553    -0.17800
C3245       C  0.78721703  0.68597189  0.17063881    -0.17800
C3246       C  0.74436828  0.74641200  0.23256054    -0.17800
H3247       H  0.72470295  0.84271926  0.12859778     0.15100
H3248       H  0.74392241  0.80783619  0.09422025     0.15100
H3249       H  0.79467971  0.71488671  0.24918147     0.15100
H3250       H  0.81892333  0.68269619  0.21481617     0.15100
H3251       H  0.67816190  0.81907399  0.21603739     0.13400
H3252       H  0.69793381  0.78351943  0.24992102     0.13400
H3253       H  0.75505703  0.68842735  0.09241724     0.13400
H3254       H  0.77661496  0.65438043  0.12627165     0.13400
H3255       H  0.72324031  0.75476532  0.15459483     0.26600
H3256       H  0.74612567  0.72608122  0.18494600     0.26600
N3257       N  0.52584485  0.47358973  0.42049569    -0.36100
N3258       N  0.52403840  0.47021883  0.36734474    -0.56700
N3259       N  0.97205062  0.50548573  0.36896205    -0.36100
N3260       N  0.97495581  0.50752536  0.42197989    -0.56700
C3261       C  0.54702241  0.45408775  0.41534007     0.27500
C3262       C  0.52048491  0.47201688  0.44442591     0.27500
C3263       C  0.97176895  0.49537279  0.34604834     0.27500
C3264       C  0.94426625  0.51160783  0.37489352     0.27500
C3265       C  0.55218633  0.46374209  0.37159734     0.36100
C3266       C  0.52257621  0.47907139  0.34421506     0.36100
C3267       C  0.98115308  0.50942001  0.44565336     0.36100
C3268       C  0.95175790  0.52482514  0.41800489     0.36100
C3269       C  0.55543364  0.43974904  0.43611377    -0.21400
C3270       C  0.53877598  0.45103340  0.45447536    -0.21400
C3271       C  0.94367224  0.49546201  0.33716153    -0.21400
C3272       C  0.92621918  0.50554680  0.35543390    -0.21400
C3273       C  0.56854937  0.46800916  0.35096035    -0.22500
C3274       C  0.54967517  0.47761128  0.33354297    -0.22500
C3275       C  0.96168278  0.52847407  0.45677764    -0.22500
C3276       C  0.94311662  0.53822434  0.43922732    -0.22500
C3277       C  0.56323370  0.45410908  0.39389678    -0.17800
C3278       C  0.00152344  0.49106721  0.45743671    -0.17800
C3279       C  0.93477261  0.52345764  0.39704927    -0.17800
C3280       C  0.99661583  0.48763708  0.33270211    -0.17800
H3281       H  0.57308617  0.42415852  0.43804557     0.15100
H3282       H  0.54129051  0.44529691  0.47316747     0.15100
H3283       H  0.93651795  0.48882204  0.31941665     0.15100
H3284       H  0.90288293  0.50834502  0.35438900     0.15100
H3285       H  0.59169844  0.46484181  0.34869288     0.13400
H3286       H  0.55530619  0.48334641  0.31528829     0.13400
H3287       H  0.95960667  0.53365053  0.47565612     0.13400
H3288       H  0.92426272  0.55209261  0.44202942     0.13400
H3289       H  0.51955408  0.49026347  0.40893216     0.26600
H3290       H  0.99039029  0.51050351  0.37914057     0.26600
N3291       N  0.51998140  0.78070865  0.42055527    -0.36100
N3292       N  0.97301637  0.74187082  0.42306407    -0.56700
N3293       N  0.97340271  0.73576566  0.36971543    -0.36100
N3294       N  0.52108210  0.77707776  0.36737392    -0.56700
C3295       C  0.51324105  0.78488035  0.44405493     0.27500
C3296       C  0.53997601  0.80090373  0.41452416     0.27500
C3297       C  0.94608288  0.72728029  0.37520289     0.27500
C3298       C  0.97335627  0.74294572  0.34608617     0.27500
C3299       C  0.97709289  0.74460708  0.44703469     0.36100
C3300       C  0.95164631  0.72214609  0.41974081     0.36100
C3301       C  0.54822336  0.78689825  0.37184954     0.36100
C3302       C  0.52146886  0.76641671  0.34463960     0.36100
C3303       C  0.52930606  0.80847051  0.45286563    -0.21400
C3304       C  0.54622993  0.81840505  0.43424327    -0.21400
C3305       C  0.92887052  0.72825880  0.35467453    -0.21400
C3306       C  0.94613641  0.73799404  0.33631120    -0.21400
C3307       C  0.95796719  0.72622452  0.45903330    -0.22500
C3308       C  0.94199648  0.71199474  0.44175528    -0.22500
C3309       C  0.56561842  0.78303753  0.35169219    -0.22500
C3310       C  0.54847092  0.77044354  0.33432037    -0.22500
C3311       C  0.99536272  0.76598345  0.45794658    -0.17800
C3312       C  0.55769925  0.79867617  0.39404485    -0.17800
C3313       C  0.99746541  0.75338389  0.33304741    -0.17800
C3314       C  0.93583641  0.71921691  0.39820958    -0.17800
H3315       H  0.53033328  0.81693343  0.47099414     0.15100
H3316       H  0.56269998  0.83531271  0.43543377     0.15100
H3317       H  0.90606129  0.72283511  0.35306417     0.15100
H3318       H  0.93924913  0.74162715  0.31796271     0.15100
H3319       H  0.95415368  0.72447380  0.47811571     0.13400
H3320       H  0.92379627  0.69751689  0.44502864     0.13400
H3321       H  0.58834188  0.78849102  0.34964549     0.13400
H3322       H  0.55530756  0.76412511  0.31642491     0.13400
H3323       H  0.51590204  0.76211935  0.41024693     0.26600
H3324       H  0.99133628  0.73515544  0.38108484     0.26600
N3325       N  0.72354248  0.97706998  0.42065105    -0.36100
N3326       N  0.77247709  0.01404753  0.42210770    -0.56700
N3327       N  0.77348228  0.01556380  0.36885831    -0.36100
N3328       N  0.72413602  0.97622250  0.36753081    -0.56700
C3329       C  0.72962860  0.97504305  0.44444101     0.27500
C3330       C  0.70333245  0.95662744  0.41540147     0.27500
C3331       C  0.80100831  0.02356994  0.37412256     0.27500
C3332       C  0.77308033  0.00770249  0.34536698     0.27500
C3333       C  0.76759816  0.01384953  0.44603173     0.36100
C3334       C  0.79534531  0.03177802  0.41835380     0.36100
C3335       C  0.69691366  0.96659606  0.37175652     0.36100
C3336       C  0.72435539  0.98529698  0.34443499     0.36100
C3337       C  0.71266675  0.95287420  0.45429698    -0.21400
C3338       C  0.69618733  0.94130840  0.43596587    -0.21400
C3339       C  0.81794452  0.02172401  0.35349265    -0.21400
C3340       C  0.80016959  0.01208901  0.33527574    -0.21400
C3341       C  0.78749278  0.03207265  0.45752351    -0.22500
C3342       C  0.80504742  0.04332911  0.43997878    -0.22500
C3343       C  0.68006169  0.96909580  0.35113181    -0.22500
C3344       C  0.69765500  0.98052912  0.33370189    -0.22500
C3345       C  0.74830838  0.99422818  0.45756302    -0.17800
C3346       C  0.68696095  0.95582823  0.39401586    -0.17800
C3347       C  0.74871249  0.99707868  0.33275661    -0.17800
C3348       C  0.81158422  0.03207769  0.39699365    -0.17800
H3349       H  0.71089210  0.94632806  0.47285203     0.15100
H3350       H  0.67958573  0.92463820  0.43778066     0.15100
H3351       H  0.84082520  0.02667275  0.35168557     0.15100
H3352       H  0.80663330  0.00802681  0.31686450     0.15100
H3353       H  0.79066950  0.03554406  0.47655694     0.13400
H3354       H  0.82402690  0.05691481  0.44291263     0.13400
H3355       H  0.65737739  0.96356504  0.34882493     0.13400
H3356       H  0.69134652  0.98548762  0.31542162     0.13400
H3357       H  0.72878566  0.99430104  0.40933748     0.26600
H3358       H  0.75564398  0.01691572  0.38024972     0.26600
N3359       N  0.71974364  0.77095113  0.42393724    -0.36100
N3360       N  0.71829798  0.76466691  0.37133042    -0.56700
N3361       N  0.77186466  0.73177395  0.37320459    -0.36100
N3362       N  0.77289939  0.73965460  0.42616226    -0.56700
C3363       C  0.69697579  0.78823320  0.41826581     0.27500
C3364       C  0.72642169  0.77623413  0.44726779     0.27500
C3365       C  0.77008808  0.73764551  0.34938371     0.27500
C3366       C  0.80011516  0.72647447  0.37821492     0.27500
C3367       C  0.69061267  0.77305403  0.37544966     0.36100
C3368       C  0.71900303  0.75426416  0.34854981     0.36100
C3369       C  0.76855694  0.74209799  0.45011431     0.36100
C3370       C  0.79681197  0.72298042  0.42306510     0.36100
C3371       C  0.68890474  0.80482933  0.43809357    -0.21400
C3372       C  0.70736519  0.79723713  0.45642234    -0.21400
C3373       C  0.79725814  0.73487128  0.33896990    -0.21400
C3374       C  0.81627222  0.72810464  0.35717116    -0.21400
C3375       C  0.67373948  0.76816216  0.35512545    -0.22500
C3376       C  0.69188325  0.75660964  0.33795059    -0.22500
C3377       C  0.78999309  0.72671995  0.46234955    -0.22500
C3378       C  0.80786654  0.71463505  0.44520784    -0.22500
C3379       C  0.68054528  0.78602058  0.39699038    -0.17800
C3380       C  0.74744032  0.76065387  0.46086882    -0.17800
C3381       C  0.81190962  0.72017017  0.40114360    -0.17800
C3382       C  0.74441655  0.74481917  0.33677195    -0.17800
H3383       H  0.67073215  0.81989572  0.43949250     0.15100
H3384       H  0.70577183  0.80559618  0.47456690     0.15100
H3385       H  0.80291288  0.73784891  0.32027703     0.15100
H3386       H  0.83944368  0.72488274  0.35507200     0.15100
H3387       H  0.65082009  0.77273633  0.35278582     0.13400
H3388       H  0.68580979  0.75053635  0.31980630     0.13400
H3389       H  0.79346785  0.72549418  0.48153762     0.13400
H3390       H  0.82765453  0.70242569  0.44863910     0.13400
H3391       H  0.72687707  0.75345042  0.41347898     0.26600
H3392       H  0.75458312  0.72951460  0.38506722     0.26600
O3393       O  0.00231348  0.51423919  0.56813902    -0.72500
O3394       O  0.00234832  0.51487940  0.49596951    -0.73400
O3395       O  0.95647653  0.51551726  0.53203171    -0.62100
O3396       O  0.54700024  0.51342711  0.53218665    -0.70500
O3397       O  0.54620339  0.96488918  0.53186158    -0.70000
O3398       O  0.95559905  0.96697561  0.53126535    -0.61300
O3399       O  0.00090505  0.96613840  0.49544171    -0.73800
O3400       O  0.00034136  0.96564441  0.56773497    -0.72600
Cu3401     Cu  0.00200550  0.51614691  0.53209458     1.04600
Cu3402     Cu  0.00073597  0.96427593  0.53156417     1.04300
C3403       C  0.00160299  0.98984707  0.57942472     0.93700
C3404       C  0.00171596  0.99056540  0.48424247     0.92900
C3405       C  0.94157729  0.99147651  0.53161950     0.85000
C3406       C  0.56102127  0.98887678  0.53212798     0.91300
O3407       O  0.99680350  0.79733336  0.56792628    -0.72500
O3408       O  0.99465485  0.79326862  0.49529435    -0.73400
O3409       O  0.95039804  0.79570963  0.53228099    -0.62100
O3410       O  0.54109361  0.79475993  0.53080039    -0.70500
O3411       O  0.54059993  0.74646242  0.53392853    -0.70000
O3412       O  0.95015423  0.74723601  0.53246720    -0.61300
O3413       O  0.99664172  0.74477232  0.49720915    -0.73800
O3414       O  0.99421558  0.74878873  0.56901607    -0.72600
Cu3415     Cu  0.99574710  0.79696086  0.53152811     1.04600
Cu3416     Cu  0.99538239  0.74523980  0.53320154     1.04300
C3417       C  0.99566659  0.77347747  0.57994599     0.93700
C3418       C  0.99565486  0.76825070  0.48475340     0.92900
C3419       C  0.93584297  0.77157226  0.53247722     0.85000
C3420       C  0.55528537  0.77040488  0.53232464     0.91300
O3421       O  0.70644895  0.96329138  0.53086147    -0.72500
O3422       O  0.79700520  0.96530498  0.52933296    -0.73400
O3423       O  0.75338964  0.96069460  0.56581890    -0.62100
O3424       O  0.75092107  0.96716284  0.49425716    -0.70500
O3425       O  0.74878284  0.51570190  0.49707239    -0.70000
O3426       O  0.75196192  0.50925380  0.56905167    -0.61300
O3427       O  0.79601044  0.51371735  0.53220219    -0.73800
O3428       O  0.70551401  0.51168584  0.53403478    -0.72600
Cu3429     Cu  0.75192613  0.96251225  0.52995788     1.04600
Cu3430     Cu  0.75055484  0.51425410  0.53319404     1.04300
C3431       C  0.69154593  0.98721541  0.53259159     0.93700
C3432       C  0.81093503  0.98974908  0.53073003     0.92900
C3433       C  0.75330634  0.98384539  0.57882198     0.85000
C3434       C  0.74925346  0.99227915  0.48425692     0.91300
O3435       O  0.74782773  0.78965462  0.49696440    -0.72500
O3436       O  0.74335914  0.79870017  0.56904309    -0.73400
O3437       O  0.79087856  0.79441868  0.53421943    -0.62100
O3438       O  0.70048010  0.79417366  0.53116170    -0.70500
O3439       O  0.70023363  0.74606862  0.53583947    -0.70000
O3440       O  0.79094430  0.74604372  0.53662223    -0.61300
O3441       O  0.74519632  0.75026747  0.57221934    -0.73800
O3442       O  0.74609382  0.74120600  0.50060873    -0.72600
Cu3443     Cu  0.74567009  0.79588808  0.53275575     1.04600
Cu3444     Cu  0.74565009  0.74429269  0.53650313     1.04300
C3445       C  0.74726581  0.76403481  0.48742751     0.93700
C3446       C  0.74340809  0.77562446  0.58207059     0.92900
C3447       C  0.80533894  0.77021621  0.53527312     0.85000
C3448       C  0.68591993  0.77019246  0.53310505     0.91300
O3449       O  0.52306595  0.99225400  0.99587061    -0.72500
O3450       O  0.52200509  0.99455271  0.06764328    -0.73400
O3451       O  0.52297567  0.94797034  0.03225206    -0.62100
O3452       O  0.52135884  0.53858790  0.03089229    -0.70500
O3453       O  0.47336695  0.53808000  0.03106005    -0.70000
O3454       O  0.47500766  0.94763629  0.03072865    -0.61300
O3455       O  0.47377937  0.99257239  0.06706368    -0.73800
O3456       O  0.47480062  0.99314577  0.99495078    -0.72600
Cu3457     Cu  0.52399199  0.99336663  0.03171230     1.04600
Cu3458     Cu  0.97250487  0.99280019  0.03098188     1.04300
C3459       C  0.49925315  0.99278087  0.98412551     0.93700
C3460       C  0.49773841  0.99367677  0.07866014     0.92900
C3461       C  0.49911317  0.93338525  0.03142988     0.85000
C3462       C  0.49716493  0.55274994  0.03068787     0.91300
O3463       O  0.51854384  0.69764880  0.02960578    -0.72500
O3464       O  0.52020883  0.78801469  0.03149112    -0.73400
O3465       O  0.51925849  0.74182136  0.06682711    -0.62100
O3466       O  0.51910356  0.74421963  0.99451588    -0.70500
O3467       O  0.47083746  0.74329951  0.99484357    -0.70000
O3468       O  0.47105004  0.74422229  0.06663901    -0.61300
O3469       O  0.47222542  0.78879394  0.03056299    -0.73800
O3470       O  0.47057049  0.69814023  0.03069365    -0.72600
Cu3471     Cu  0.52094341  0.74283022  0.03062614     1.04600
Cu3472     Cu  0.96941583  0.74355385  0.03069676     1.04300
C3473       C  0.49445164  0.68346215  0.02993690     0.93700
C3474       C  0.49643576  0.80280551  0.03100825     0.92900
C3475       C  0.49508338  0.74324969  0.07806034     0.85000
C3476       C  0.49479539  0.74421384  0.98339270     0.91300
O3477       O  0.72300750  0.99912587  0.99540926    -0.72500
O3478       O  0.72519520  0.99781340  0.06786857    -0.73400
O3479       O  0.72394762  0.54363277  0.03234095    -0.62100
O3480       O  0.72383581  0.95325406  0.03137783    -0.70500
O3481       O  0.77183999  0.95296049  0.03134391    -0.70000
O3482       O  0.77190757  0.54366966  0.03082194    -0.61300
O3483       O  0.77342068  0.99914759  0.06689351    -0.73800
O3484       O  0.77122577  0.99759053  0.99493039    -0.72600
Cu3485     Cu  0.72234368  0.99846593  0.03174031     1.04600
Cu3486     Cu  0.77372971  0.99834196  0.03090620     1.04300
C3487       C  0.74696235  0.99833454  0.98380392     0.93700
C3488       C  0.74969741  0.99852556  0.07870567     0.92900
C3489       C  0.74786973  0.55806318  0.03185214     0.85000
C3490       C  0.74775754  0.93869587  0.03164437     0.91300
O3491       O  0.77306429  0.70306819  0.03486989    -0.72500
O3492       O  0.77283769  0.79360704  0.03566000    -0.73400
O3493       O  0.77183752  0.74766764  0.07137463    -0.62100
O3494       O  0.77471427  0.74879063  0.99934352    -0.70500
O3495       O  0.72652442  0.74753206  0.99774442    -0.70000
O3496       O  0.72361748  0.74901494  0.07025383    -0.61300
O3497       O  0.72488398  0.79368837  0.03374596    -0.73800
O3498       O  0.72507074  0.70307649  0.03425860    -0.72600
Cu3499     Cu  0.77471814  0.74830110  0.03538363     1.04600
Cu3500     Cu  0.72334813  0.74834240  0.03396810     1.04300
C3501       C  0.74909928  0.68866018  0.03449590     0.93700
C3502       C  0.74886425  0.80806531  0.03453882     0.92900
C3503       C  0.74738102  0.74818207  0.08215622     0.85000
C3504       C  0.75117968  0.74811599  0.98718807     0.91300
N3505       N  0.52497331  0.96984018  0.92338945    -0.36100
N3506       N  0.48326632  0.51849159  0.92159148    -0.56700
N3507       N  0.99220932  0.52122968  0.86958075    -0.36100
N3508       N  0.03017013  0.97211616  0.87101483    -0.56700
C3509       C  0.51379531  0.96936499  0.94584551     0.27500
C3510       C  0.53499800  0.94244338  0.91859464     0.27500
C3511       C  0.97015127  0.54031863  0.87290267     0.27500
C3512       C  0.99282978  0.51442071  0.84591263     0.27500
C3513       C  0.48829351  0.51752169  0.94550022     0.36100
C3514       C  0.47261540  0.54563212  0.91712731     0.36100
C3515       C  0.04888766  0.95019692  0.87593815     0.36100
C3516       C  0.03314054  0.97827741  0.84747582     0.36100
C3517       C  0.51796075  0.94189350  0.95590770    -0.21400
C3518       C  0.53094154  0.92475735  0.93860307    -0.21400
C3519       C  0.95662624  0.54607276  0.85119781    -0.21400
C3520       C  0.97067974  0.52934955  0.83414302    -0.21400
C3521       C  0.47981174  0.54364181  0.95636226    -0.22500
C3522       C  0.47010967  0.56160090  0.93831233    -0.22500
C3523       C  0.06425217  0.94251613  0.85544301    -0.22500
C3524       C  0.05459024  0.96067520  0.83743248    -0.22500
C3525       C  0.50030502  0.99319875  0.95768080    -0.17800
C3526       C  0.04682874  0.93257690  0.89653668    -0.17800
C3527       C  0.01396146  0.99660499  0.83454185    -0.17800
C3528       C  0.96532954  0.55625469  0.89416322    -0.17800
H3529       H  0.51150776  0.93469092  0.97362076     0.15100
H3530       H  0.53655366  0.90179761  0.94060862     0.15100
H3531       H  0.93896491  0.56131964  0.84798242     0.15100
H3532       H  0.96566525  0.52894379  0.81514551     0.15100
H3533       H  0.48116582  0.54943096  0.97521490     0.13400
H3534       H  0.46229388  0.58390950  0.94052674     0.13400
H3535       H  0.07955745  0.92456340  0.85344852     0.13400
H3536       H  0.06125094  0.95972512  0.81880671     0.13400
H3537       H  0.52690260  0.98828002  0.91254855     0.26600
H3538       H  0.00834191  0.51693007  0.88217827     0.26600
N3539       N  0.47275911  0.71979675  0.92203300    -0.36100
N3540       N  0.51113593  0.77075491  0.92132857    -0.56700
N3541       N  0.00481765  0.77237021  0.86916470    -0.36100
N3542       N  0.96983456  0.72116419  0.86948562    -0.56700
C3543       C  0.48311380  0.72008343  0.94478071     0.27500
C3544       C  0.46506071  0.69175671  0.91703261     0.27500
C3545       C  0.02613852  0.79216163  0.87294159     0.27500
C3546       C  0.00474414  0.76583817  0.84542988     0.27500
C3547       C  0.50452251  0.76992479  0.94496219     0.36100
C3548       C  0.52074868  0.79825616  0.91697314     0.36100
C3549       C  0.95213084  0.69838993  0.87403147     0.36100
C3550       C  0.96632057  0.72782717  0.84609386     0.36100
C3551       C  0.48079696  0.69234259  0.95473586    -0.21400
C3552       C  0.46970731  0.67435018  0.93712231    -0.21400
C3553       C  0.03994067  0.79830875  0.85143869    -0.21400
C3554       C  0.02659825  0.78146803  0.83406271    -0.21400
C3555       C  0.51055399  0.79669312  0.95580689    -0.22500
C3556       C  0.52060926  0.81478799  0.93799836    -0.22500
C3557       C  0.93709025  0.69042818  0.85344721    -0.22500
C3558       C  0.94567096  0.70952151  0.83577051    -0.22500
C3559       C  0.49412024  0.74487826  0.95693752    -0.17800
C3560       C  0.95426922  0.68117529  0.89478158    -0.17800
C3561       C  0.98407746  0.74782891  0.83361433    -0.17800
C3562       C  0.02979431  0.80843052  0.89432050    -0.17800
H3563       H  0.48714100  0.68561231  0.97262247     0.15100
H3564       H  0.46561809  0.65103838  0.93891426     0.15100
H3565       H  0.05709085  0.81413530  0.84849448     0.15100
H3566       H  0.03180156  0.78147870  0.81510854     0.15100
H3567       H  0.50760399  0.80266794  0.97449426     0.13400
H3568       H  0.52694748  0.83751909  0.94031860     0.13400
H3569       H  0.92236469  0.67208199  0.85125607     0.13400
H3570       H  0.93861646  0.70896095  0.81722380     0.13400
H3571       H  0.46963631  0.73805303  0.91115879     0.26600
H3572       H  0.98848450  0.76751959  0.88136219     0.26600
N3573       N  0.76996381  0.97323169  0.92261060    -0.36100
N3574       N  0.72916042  0.52288023  0.92096233    -0.56700
N3575       N  0.73434867  0.52231657  0.86855498    -0.36100
N3576       N  0.77130611  0.97201950  0.87003518    -0.56700
C3577       C  0.75984900  0.97367035  0.94544521     0.27500
C3578       C  0.78061593  0.94589865  0.91844272     0.27500
C3579       C  0.71412745  0.54336112  0.87216283     0.27500
C3580       C  0.73275952  0.51402161  0.84519512     0.27500
C3581       C  0.73528383  0.52235019  0.94475776     0.36100
C3582       C  0.71995913  0.55051955  0.91612951     0.36100
C3583       C  0.79148821  0.95139027  0.87487377     0.36100
C3584       C  0.77229801  0.97681567  0.84614506     0.36100
C3585       C  0.76505775  0.94676448  0.95619119    -0.21400
C3586       C  0.77785216  0.92913881  0.93911337    -0.21400
C3587       C  0.69942659  0.54877194  0.85090982    -0.21400
C3588       C  0.71078679  0.52980087  0.83394999    -0.21400
C3589       C  0.72886185  0.54923373  0.95523586    -0.22500
C3590       C  0.71959717  0.56723124  0.93706489    -0.22500
C3591       C  0.80568263  0.94312377  0.85394299    -0.22500
C3592       C  0.79368100  0.95943279  0.83572935    -0.22500
C3593       C  0.74693769  0.99799662  0.95717732    -0.17800
C3594       C  0.79243269  0.93544412  0.89648307    -0.17800
C3595       C  0.75224767  0.99454846  0.83349171    -0.17800
C3596       C  0.71227008  0.56093597  0.89302489    -0.17800
H3597       H  0.75967095  0.94029680  0.97433304     0.15100
H3598       H  0.78420542  0.90646752  0.94172571     0.15100
H3599       H  0.68281678  0.56523128  0.84786801     0.15100
H3600       H  0.70441385  0.52868980  0.81524570     0.15100
H3601       H  0.73161291  0.55556867  0.97386994     0.13400
H3602       H  0.71364932  0.59009791  0.93918281     0.13400
H3603       H  0.82192540  0.92604157  0.85190445     0.13400
H3604       H  0.79927931  0.95780306  0.81689340     0.13400
H3605       H  0.77125585  0.99115933  0.91115832     0.26600
H3606       H  0.75103095  0.51762149  0.88051496     0.26600
N3607       N  0.73432146  0.72392177  0.92415952    -0.36100
N3608       N  0.73585320  0.72602262  0.87144102    -0.56700
N3609       N  0.77296650  0.77503037  0.87365368    -0.36100
N3610       N  0.77520195  0.77284009  0.92628203    -0.56700
C3611       C  0.72614959  0.69618681  0.91834952     0.27500
C3612       C  0.74223352  0.72386148  0.94759666     0.27500
C3613       C  0.77408695  0.76929606  0.84980575     0.27500
C3614       C  0.79533453  0.79298232  0.87895383     0.27500
C3615       C  0.71635076  0.70450326  0.87496105     0.36100
C3616       C  0.73337369  0.73420409  0.84825045     0.36100
C3617       C  0.76594797  0.77263406  0.94933783     0.36100
C3618       C  0.78632232  0.79991774  0.92245781     0.36100
C3619       C  0.72855709  0.67846070  0.93851963    -0.21400
C3620       C  0.73824522  0.69606942  0.95707057    -0.21400
C3621       C  0.79772592  0.78355108  0.83982675    -0.21400
C3622       C  0.81107833  0.79868669  0.85827557    -0.21400
C3623       C  0.70124482  0.69884911  0.85388623    -0.22500
C3624       C  0.71173898  0.71807480  0.83698182    -0.22500
C3625       C  0.77218320  0.79920474  0.96045717    -0.22500
C3626       C  0.78479774  0.81664162  0.94333830    -0.22500
C3627       C  0.71591840  0.68666664  0.89552943    -0.17800
C3628       C  0.75266074  0.74841646  0.96060885    -0.17800
C3629       C  0.79695164  0.80992653  0.90012122    -0.17800
C3630       C  0.75283196  0.75349800  0.83678138    -0.17800
H3631       H  0.72368164  0.65526948  0.93986296     0.15100
H3632       H  0.74256203  0.68904979  0.97528855     0.15100
H3633       H  0.80397424  0.78396645  0.82109501     0.15100
H3634       H  0.82921279  0.81363916  0.85651321     0.15100
H3635       H  0.68504071  0.68200424  0.85090066     0.13400
H3636       H  0.70522873  0.71905428  0.81831170     0.13400
H3637       H  0.76749065  0.80560106  0.97880511     0.13400
H3638       H  0.79173724  0.83913056  0.94598929     0.13400
H3639       H  0.73268783  0.74242534  0.91331779     0.26600
H3640       H  0.75520793  0.77153769  0.88480762     0.26600
N3641       N  0.52924797  0.97234346  0.64180463    -0.36100
N3642       N  0.98063472  0.00956484  0.64295994    -0.56700
N3643       N  0.98350276  0.01235970  0.69612863    -0.36100
N3644       N  0.53283762  0.97293423  0.69469352    -0.56700
C3645       C  0.52108753  0.96989468  0.61844346     0.27500
C3646       C  0.54939688  0.95146967  0.64607371     0.27500
C3647       C  0.95540769  0.01939992  0.69209300     0.27500
C3648       C  0.98556420  0.00425646  0.71942033     0.27500
C3649       C  0.98432893  0.00991148  0.61889816     0.36100
C3650       C  0.95885950  0.02832139  0.64809032     0.36100
C3651       C  0.55943130  0.96229054  0.68918380     0.36100
C3652       C  0.53437680  0.98217865  0.71779770     0.36100
C3653       C  0.53645593  0.94681907  0.60791653    -0.21400
C3654       C  0.55425463  0.93529178  0.62535903    -0.21400
C3655       C  0.93972870  0.01671151  0.71328806    -0.21400
C3656       C  0.95893303  0.00759242  0.73064970    -0.21400
C3657       C  0.96466248  0.02942166  0.60866072    -0.22500
C3658       C  0.94849839  0.04093317  0.62717169    -0.22500
C3659       C  0.57768717  0.96436757  0.70902003    -0.22500
C3660       C  0.56163020  0.97661213  0.72725676    -0.22500
C3661       C  0.00244842  0.98990867  0.60623119    -0.17800
C3662       C  0.56741908  0.95063441  0.66652868    -0.17800
C3663       C  0.01103533  0.99420116  0.73074553    -0.17800
C3664       C  0.94334758  0.02773294  0.66979037    -0.17800
H3665       H  0.53626160  0.93946638  0.58946049     0.15100
H3666       H  0.57013031  0.91795899  0.62280003     0.15100
H3667       H  0.91679022  0.02081038  0.71601145     0.15100
H3668       H  0.95369182  0.00307569  0.74921531     0.15100
H3669       H  0.96064368  0.03356798  0.58985180     0.13400
H3670       H  0.92984911  0.05530704  0.62534917     0.13400
H3671       H  0.60023317  0.95779929  0.71032645     0.13400
H3672       H  0.56922988  0.98128658  0.74528511     0.13400
H3673       H  0.52551904  0.99013384  0.65314396     0.26600
H3674       H  0.00060153  0.01432226  0.68403733     0.26600
N3675       N  0.51981094  0.75327071  0.64280603    -0.36100
N3676       N  0.96969876  0.78872910  0.64279044    -0.56700
N3677       N  0.96456026  0.78036691  0.69518024    -0.36100
N3678       N  0.51549349  0.74310306  0.69488783    -0.56700
C3679       C  0.51504823  0.75401064  0.61877348     0.27500
C3680       C  0.54096764  0.73340409  0.64688049     0.27500
C3681       C  0.93737990  0.78874524  0.68905044     0.27500
C3682       C  0.96262777  0.76654468  0.71662962     0.27500
C3683       C  0.97660956  0.79236676  0.61940471     0.36100
C3684       C  0.94747749  0.80703741  0.64768489     0.36100
C3685       C  0.54382585  0.73697705  0.69126960     0.36100
C3686       C  0.51270996  0.74837974  0.71866750     0.36100
C3687       C  0.53385756  0.73422383  0.60759760    -0.21400
C3688       C  0.55019974  0.72136508  0.62534893    -0.21400
C3689       C  0.91809374  0.78024656  0.70694249    -0.21400
C3690       C  0.93410651  0.76643616  0.72440630    -0.21400
C3691       C  0.95868105  0.81361996  0.60938674    -0.22500
C3692       C  0.94040505  0.82305440  0.62736600    -0.22500
C3693       C  0.55893323  0.73778488  0.71286597    -0.22500
C3694       C  0.53909078  0.74488595  0.73029276    -0.22500
C3695       C  0.99623042  0.77390158  0.60674196    -0.17800
C3696       C  0.55619626  0.73088679  0.66867003    -0.17800
C3697       C  0.98634740  0.75554947  0.72989332    -0.17800
C3698       C  0.92946445  0.80425931  0.66800275    -0.17800
H3699       H  0.53710441  0.73046221  0.58861584     0.15100
H3700       H  0.56802764  0.70613646  0.62266342     0.15100
H3701       H  0.89481869  0.78354130  0.70745322     0.15100
H3702       H  0.92570756  0.75716063  0.74085791     0.15100
H3703       H  0.95761367  0.82072699  0.59091889     0.13400
H3704       H  0.92252330  0.83834208  0.62527742     0.13400
H3705       H  0.58187599  0.73396273  0.71580614     0.13400
H3706       H  0.54366107  0.74773325  0.74923880     0.13400
H3707       H  0.51295502  0.76852625  0.65552178     0.26600
H3708       H  0.98363105  0.78606187  0.68629427     0.26600
N3709       N  0.72945243  0.96404754  0.64119066    -0.36100
N3710       N  0.78144186  0.99643865  0.64153297    -0.56700
N3711       N  0.78024800  0.99699963  0.69431866    -0.36100
N3712       N  0.72758167  0.96260639  0.69409761    -0.56700
C3713       C  0.73640734  0.96185951  0.61762858     0.27500
C3714       C  0.70846391  0.94420565  0.64560081     0.27500
C3715       C  0.80847652  0.00306683  0.69006605     0.27500
C3716       C  0.77818043  0.98901711  0.71763400     0.27500
C3717       C  0.77615254  0.99844109  0.61772254     0.36100
C3718       C  0.80508211  0.01289930  0.64607913     0.36100
C3719       C  0.69979275  0.95599458  0.68850900     0.36100
C3720       C  0.72714217  0.97316189  0.71685581     0.36100
C3721       C  0.71969453  0.93985667  0.60707789    -0.21400
C3722       C  0.70211945  0.92874236  0.62478097    -0.21400
C3723       C  0.82446570  0.99914485  0.71101071    -0.21400
C3724       C  0.80526953  0.99041495  0.72844967    -0.21400
C3725       C  0.79683077  0.01629305  0.60704191    -0.22500
C3726       C  0.81521183  0.02534896  0.62503040    -0.22500
C3727       C  0.68176557  0.96190815  0.70792484    -0.22500
C3728       C  0.69917787  0.97270178  0.72593834    -0.22500
C3729       C  0.75513280  0.98144453  0.60537664    -0.17800
C3730       C  0.69053900  0.94492906  0.66602258    -0.17800
C3731       C  0.75203156  0.98234673  0.72959673    -0.17800
C3732       C  0.82008374  0.01314920  0.66811555    -0.17800
H3733       H  0.71894964  0.93305066  0.58848438     0.15100
H3734       H  0.68522062  0.91248106  0.62230566     0.15100
H3735       H  0.84754057  0.00254923  0.71357882     0.15100
H3736       H  0.81062970  0.98564397  0.74696608     0.15100
H3737       H  0.79958345  0.02108330  0.58817836     0.13400
H3738       H  0.83449903  0.03862861  0.62275226     0.13400
H3739       H  0.65845734  0.95915505  0.70896530     0.13400
H3740       H  0.69202494  0.97987347  0.74353147     0.13400
H3741       H  0.73440758  0.98155826  0.65253962     0.26600
H3742       H  0.76293579  0.00089860  0.68270133     0.26600
N3743       N  0.71645217  0.75820300  0.64484247    -0.36100
N3744       N  0.76646585  0.79361045  0.64515542    -0.56700
N3745       N  0.77026893  0.78763538  0.69816262    -0.36100
N3746       N  0.71954748  0.75052023  0.69750811    -0.56700
C3747       C  0.72164706  0.75853839  0.62083883     0.27500
C3748       C  0.69517067  0.73855574  0.64880606     0.27500
C3749       C  0.79767208  0.79549240  0.69233019     0.27500
C3750       C  0.77140076  0.77538038  0.72031517     0.27500
C3751       C  0.76019615  0.79663769  0.62156508     0.36100
C3752       C  0.78851037  0.81197546  0.65019191     0.36100
C3753       C  0.69189744  0.74200400  0.69347423     0.36100
C3754       C  0.72176402  0.75530073  0.72143966     0.36100
C3755       C  0.70283421  0.73893149  0.60955459    -0.21400
C3756       C  0.68619172  0.72641480  0.62719232    -0.21400
C3757       C  0.81625214  0.78835148  0.71117416    -0.21400
C3758       C  0.79955812  0.77622035  0.72898305    -0.21400
C3759       C  0.77824874  0.81766128  0.61156301    -0.22500
C3760       C  0.79604824  0.82746132  0.62973458    -0.22500
C3761       C  0.67675207  0.74068122  0.71499632    -0.22500
C3762       C  0.69586711  0.74870518  0.73277972    -0.22500
C3763       C  0.74119807  0.77769785  0.60880630    -0.17800
C3764       C  0.68012149  0.73539782  0.67065181    -0.17800
C3765       C  0.74737994  0.76437310  0.73312098    -0.17800
C3766       C  0.80637083  0.80925635  0.67066920    -0.17800
H3767       H  0.69994473  0.73499200  0.59054310     0.15100
H3768       H  0.66849126  0.71113408  0.62436498     0.15100
H3769       H  0.83950538  0.79146795  0.71216015     0.15100
H3770       H  0.80740704  0.76833538  0.74612013     0.15100
H3771       H  0.77972589  0.82439671  0.59302870     0.13400
H3772       H  0.81396616  0.84263639  0.62774153     0.13400
H3773       H  0.65428449  0.73458054  0.71768718     0.13400
H3774       H  0.69111036  0.74998516  0.75179053     0.13400
H3775       H  0.72343744  0.77327412  0.65759946     0.26600
H3776       H  0.75156877  0.79244680  0.68839245     0.26600
C3777       C  0.89837290  0.81103299  0.66479659    -0.05000
C3778       C  0.88468876  0.83260923  0.67895340    -0.32400
C3779       C  0.85428450  0.83385660  0.68004152     0.36800
C3780       C  0.83779803  0.81342184  0.66679311    -0.05300
C3781       C  0.85165554  0.79343616  0.65138556    -0.32300
C3782       C  0.88170487  0.79216745  0.65027432     0.36800
H3783       H  0.89753085  0.84708447  0.69023601     0.17100
O3784       O  0.84085662  0.85399883  0.69475218    -0.59800
H3785       H  0.83907424  0.77746574  0.64128710     0.17100
O3786       O  0.89465007  0.77039469  0.63686930    -0.59900
H3787       H  0.89459647  0.77779599  0.62013379     0.44100
H3788       H  0.84466319  0.84724371  0.71138338     0.44100
C3789       C  0.58801826  0.72955885  0.66701550    -0.05000
C3790       C  0.60368115  0.70525799  0.67556143    -0.32400
C3791       C  0.63406485  0.70620086  0.67633601     0.36800
C3792       C  0.64850704  0.73167358  0.66865482    -0.05300
C3793       C  0.63274137  0.75539694  0.65944351    -0.32300
C3794       C  0.60271614  0.75453324  0.65865362     0.36800
H3795       H  0.59232293  0.68611554  0.68219113     0.17100
O3796       O  0.64935456  0.68283821  0.68538075    -0.59800
H3797       H  0.64384196  0.77505511  0.65348705     0.17100
O3798       O  0.58776753  0.77859348  0.65036145    -0.59900
H3799       H  0.58331442  0.79053351  0.66486273     0.44100
H3800       H  0.65384286  0.67026172  0.67126034     0.44100
C3801       C  0.91156301  0.02613668  0.66752792    -0.05000
C3802       C  0.89357609  0.54962519  0.67472841    -0.32400
C3803       C  0.86336409  0.54606578  0.67464966     0.36800
C3804       C  0.85143592  0.01895472  0.66715364    -0.05300
C3805       C  0.86945383  0.99609134  0.65935436    -0.32300
C3806       C  0.89936303  0.99952163  0.65951002     0.36800
H3807       H  0.90301091  0.57009344  0.68094549     0.17100
O3808       O  0.84575357  0.56871139  0.68202215    -0.59800
H3809       H  0.86022524  0.97526424  0.65369664     0.17100
O3810       O  0.91671236  0.97622504  0.65301441    -0.59900
H3811       H  0.91883092  0.97772161  0.63533655     0.44100
H3812       H  0.84316199  0.56578153  0.69952867     0.44100
C3813       C  0.59840903  0.94416746  0.66231570    -0.05000
C3814       C  0.61434897  0.46512941  0.64957865    -0.32400
C3815       C  0.64446001  0.46409156  0.64935092     0.36800
C3816       C  0.65904563  0.94172466  0.66190130    -0.05300
C3817       C  0.64318815  0.91914730  0.67285569    -0.32300
C3818       C  0.61275470  0.92018545  0.67295011     0.36800
H3819       H  0.60338747  0.48355665  0.64120236     0.17100
O3820       O  0.65950913  0.48625506  0.63830536    -0.59800
H3821       H  0.65440349  0.90176916  0.68237156     0.17100
O3822       O  0.59734189  0.89901893  0.68483403    -0.59900
H3823       H  0.59417865  0.88319885  0.67279517     0.44100
H3824       H  0.66301354  0.50117828  0.65103027     0.44100
C3825       C  0.75190177  0.75623974  0.81016276    -0.05000
C3826       C  0.73959940  0.78138567  0.79972351    -0.32400
C3827       C  0.73827265  0.78426922  0.77468251     0.36800
C3828       C  0.74928500  0.76182734  0.75973563    -0.05300
C3829       C  0.76172693  0.73674009  0.77017386    -0.32300
C3830       C  0.76310275  0.73388137  0.79523089     0.36800
H3831       H  0.73086057  0.79869947  0.81105154     0.17100
O3832       O  0.72557620  0.80876906  0.76492258    -0.59800
H3833       H  0.77037060  0.71939179  0.75883807     0.17100
O3834       O  0.77595130  0.70948362  0.80502705    -0.59900
H3835       H  0.76019258  0.69475897  0.80631603     0.44100
H3836       H  0.74179612  0.82264246  0.76213102     0.44100
C3837       C  0.79765582  0.90342443  0.89427000    -0.05000
C3838       C  0.82138729  0.88956573  0.90549001    -0.32400
C3839       C  0.82271509  0.85873877  0.90657999     0.36800
C3840       C  0.79998251  0.84195366  0.89660029    -0.05300
C3841       C  0.77739992  0.85597183  0.88424686    -0.32300
C3842       C  0.77607082  0.88633882  0.88307921     0.36800
H3843       H  0.83803196  0.90262741  0.91420946     0.17100
O3844       O  0.84527378  0.84537590  0.91841525    -0.59800
H3845       H  0.75982899  0.84323855  0.87645359     0.17100
O3846       O  0.75268031  0.89926705  0.87198809    -0.59900
H3847       H  0.73807214  0.90225716  0.88485479     0.44100
H3848       H  0.85795698  0.83728038  0.90558485     0.44100
C3849       C  0.70906128  0.59312669  0.88962561    -0.05000
C3850       C  0.68602278  0.60899738  0.90008039    -0.32400
C3851       C  0.68696141  0.63983854  0.90115907     0.36800
C3852       C  0.71099355  0.65482527  0.89157847    -0.05300
C3853       C  0.73270225  0.63900422  0.87952981    -0.32300
C3854       C  0.73198672  0.60845098  0.87863627     0.36800
H3855       H  0.66828968  0.59741440  0.90858785     0.17100
O3856       O  0.66530766  0.65498543  0.91275542    -0.59800
H3857       H  0.75121332  0.65038065  0.87197613     0.17100
O3858       O  0.75479916  0.59362430  0.86827672    -0.59900
H3859       H  0.76879367  0.59009371  0.88152577     0.44100
H3860       H  0.65177345  0.66125889  0.89987787     0.44100
C3861       C  0.75117689  0.99192067  0.80680119    -0.05000
C3862       C  0.74310155  0.96511249  0.79611220    -0.32400
C3863       C  0.74310786  0.96170306  0.77106792     0.36800
C3864       C  0.75087728  0.98548001  0.75628472    -0.05300
C3865       C  0.75868113  0.51237785  0.76699995    -0.32300
C3866       C  0.75911343  0.51559353  0.79203694     0.36800
H3867       H  0.73731632  0.94659628  0.80729051     0.17100
O3868       O  0.73696606  0.93470110  0.76121111    -0.59800
H3869       H  0.76496363  0.53080043  0.75590474     0.17100
O3870       O  0.76852034  0.54151816  0.80203676    -0.59900
H3871       H  0.75252238  0.55577728  0.79939135     0.44100
H3872       H  0.71584005  0.93176765  0.76371389     0.44100
C3873       C  0.98232727  0.74901436  0.80697462    -0.05000
C3874       C  0.48989252  0.72425509  0.79313100    -0.32400
C3875       C  0.49020323  0.72570530  0.76800011     0.36800
C3876       C  0.98367317  0.75244391  0.75644012    -0.05300
C3877       C  0.97528892  0.77688553  0.77032043    -0.32300
C3878       C  0.97417465  0.77516869  0.79535489     0.36800
H3879       H  0.49585750  0.70388125  0.80187670     0.17100
O3880       O  0.49647396  0.70089585  0.75482896    -0.59800
H3881       H  0.96996728  0.79750969  0.76169122     0.17100
O3882       O  0.96584810  0.79940891  0.80840150    -0.59900
H3883       H  0.94483938  0.79656749  0.81158856     0.44100
H3884       H  0.51716666  0.69634119  0.75820807     0.44100
C3885       C  0.04702757  0.90051616  0.89231978    -0.05000
C3886       C  0.02246203  0.88879192  0.88096728    -0.32400
C3887       C  0.01755521  0.85874306  0.88083872     0.36800
C3888       C  0.03765102  0.83974520  0.89182148    -0.05300
C3889       C  0.56339314  0.85116435  0.90183162    -0.32300
C3890       C  0.56820203  0.88163236  0.90208575     0.36800
H3891       H  0.00604021  0.90325227  0.87349858     0.17100
O3892       O  0.99222327  0.84820134  0.87103518    -0.59800
H3893       H  0.57894407  0.83659959  0.91030216     0.17100
O3894       O  0.59237298  0.89284262  0.91323280    -0.59900
H3895       H  0.60819153  0.89095386  0.90124781     0.44100
H3896       H  0.97859537  0.84634345  0.88472049     0.44100
C3897       C  0.95987705  0.58794932  0.89144584    -0.05000
C3898       C  0.48373576  0.60541368  0.88548947    -0.32400
C3899       C  0.48126339  0.63578504  0.88536767     0.36800
C3900       C  0.95456171  0.64909949  0.89116899    -0.05300
C3901       C  0.93014814  0.63172185  0.89607175    -0.32300
C3902       C  0.93268179  0.60098605  0.89600080     0.36800
H3903       H  0.50469097  0.59540239  0.88185364     0.17100
O3904       O  0.50533433  0.65249392  0.88048654    -0.59800
H3905       H  0.90960417  0.64197405  0.90062752     0.17100
O3906       O  0.90898190  0.58398624  0.90120622    -0.59900
H3907       H  0.90066275  0.57846591  0.88537390     0.44100
H3908       H  0.51553799  0.65477945  0.89609571     0.44100
C3909       C  0.01430815  0.99547255  0.80786475    -0.05000
C3910       C  0.02232111  0.52039824  0.79479359    -0.32400
C3911       C  0.52126725  0.52024706  0.76968539     0.36800
C3912       C  0.01247789  0.99477455  0.75734238    -0.05300
C3913       C  0.00428840  0.96982891  0.77034720    -0.32300
C3914       C  0.00489621  0.97014578  0.79549061     0.36800
H3915       H  0.52939521  0.54007908  0.80419452     0.17100
O3916       O  0.52870686  0.54509045  0.75729719    -0.59800
H3917       H  0.99692058  0.95029831  0.76095208     0.17100
O3918       O  0.99507288  0.94615826  0.80790217    -0.59900
H3919       H  0.01096572  0.93146341  0.80692862     0.44100
H3920       H  0.51057648  0.55686849  0.75637959     0.44100
C3921       C  0.74767224  0.90521943  0.03244984    -0.05000
C3922       C  0.77360250  0.88918163  0.02888732    -0.32400
C3923       C  0.77431780  0.85805844  0.02952075     0.36800
C3924       C  0.74879871  0.84155574  0.03397753    -0.05300
C3925       C  0.72284544  0.85758224  0.03761853    -0.32300
C3926       C  0.72213771  0.88873433  0.03702818     0.36800
H3927       H  0.79363859  0.90081903  0.02534691     0.17100
O3928       O  0.80030242  0.84406941  0.02556601    -0.59800
H3929       H  0.70282368  0.84591588  0.04116710     0.17100
O3930       O  0.69616431  0.90273090  0.04105871    -0.59900
H3931       H  0.69537695  0.90598029  0.05867842     0.44100
H3932       H  0.80181941  0.84210642  0.00785889     0.44100
C3933       C  0.74783592  0.59153602  0.03267038    -0.05000
C3934       C  0.77417840  0.60720683  0.03458886    -0.32400
C3935       C  0.77493480  0.63831368  0.03559278     0.36800
C3936       C  0.74903635  0.65518134  0.03419233    -0.05300
C3937       C  0.72266800  0.63951314  0.03241782    -0.32300
C3938       C  0.72186803  0.60838317  0.03188529     0.36800
H3939       H  0.79453958  0.59527994  0.03554276     0.17100
O3940       O  0.80136739  0.65189138  0.03787250    -0.59800
H3941       H  0.70230669  0.65144108  0.03144059     0.17100
O3942       O  0.69537976  0.59477675  0.03021206    -0.59900
H3943       H  0.68799751  0.59394834  0.04693105     0.44100
H3944       H  0.80512852  0.65277204  0.05541333     0.44100
C3945       C  0.49902834  0.89989611  0.03124117    -0.05000
C3946       C  0.97231733  0.88443317  0.03097063    -0.32400
C3947       C  0.97114872  0.85336241  0.03068975     0.36800
C3948       C  0.49704267  0.83626138  0.03094057    -0.05300
C3949       C  0.52368524  0.85164219  0.03088470    -0.32300
C3950       C  0.52484656  0.88279794  0.03106089     0.36800
H3951       H  0.95202109  0.89652763  0.03092641     0.17100
O3952       O  0.94443309  0.84009191  0.03038635    -0.59800
H3953       H  0.54394490  0.83947530  0.03071320     0.17100
O3954       O  0.55151036  0.89618016  0.03066557    -0.59900
H3955       H  0.55815227  0.89642002  0.04762164     0.44100
H3956       H  0.93955890  0.83765147  0.01312805     0.44100
C3957       C  0.49658883  0.58623922  0.02998347    -0.05000
C3958       C  0.46995043  0.60175783  0.02967772    -0.32400
C3959       C  0.46878408  0.63291710  0.02925509     0.36800
C3960       C  0.49458162  0.64993868  0.02954925    -0.05300
C3961       C  0.52115887  0.63437624  0.02947099    -0.32300
C3962       C  0.52233275  0.60327364  0.02945918     0.36800
H3963       H  0.44968923  0.58968578  0.02972468     0.17100
O3964       O  0.44210267  0.64636849  0.02874990    -0.59800
H3965       H  0.54145237  0.64638464  0.02940971     0.17100
O3966       O  0.54904058  0.58986487  0.02918255    -0.59900
H3967       H  0.55472577  0.58911834  0.01200596     0.44100
H3968       H  0.43742467  0.64862227  0.01145489     0.44100
C3969       C  0.83881465  0.77031788  0.53461171    -0.05000
C3970       C  0.85449126  0.79684986  0.53200829    -0.32400
C3971       C  0.88543366  0.79764677  0.53108162     0.36800
C3972       C  0.90235735  0.77157871  0.53292431    -0.05300
C3973       C  0.88666165  0.74503652  0.53530660    -0.32300
C3974       C  0.85573585  0.74420458  0.53594227     0.36800
H3975       H  0.84268296  0.81737738  0.53048376     0.17100
O3976       O  0.89878125  0.82421617  0.52769574    -0.59800
H3977       H  0.89844729  0.72447676  0.53664424     0.17100
O3978       O  0.84238892  0.71743016  0.53799131    -0.59900
H3979       H  0.83958316  0.71044405  0.52123455     0.44100
H3980       H  0.89961514  0.83346338  0.54384473     0.44100
C3981       C  0.58878883  0.76998646  0.53221307    -0.05000
C3982       C  0.60492444  0.79583579  0.52779702    -0.32400
C3983       C  0.63589063  0.79615857  0.52764788     0.36800
C3984       C  0.65241453  0.77035598  0.53235340    -0.05300
C3985       C  0.63627642  0.74443011  0.53648811    -0.32300
C3986       C  0.60530578  0.74406240  0.53646036     0.36800
H3987       H  0.59346221  0.81617914  0.52425244     0.17100
O3988       O  0.64968656  0.82216530  0.52291054    -0.59800
H3989       H  0.64773711  0.72407364  0.53998168     0.17100
O3990       O  0.59150207  0.71790920  0.54062232    -0.59900
H3991       H  0.58899611  0.71703950  0.55829439     0.44100
H3992       H  0.65141082  0.82285370  0.50516419     0.44100
C3993       C  0.90806163  0.99170453  0.53144014    -0.05000
C3994       C  0.89234549  0.96522220  0.52863939    -0.32400
C3995       C  0.86144183  0.96432841  0.52827399     0.36800
C3996       C  0.84444398  0.99028004  0.53077656    -0.05300
C3997       C  0.86014221  0.51691123  0.53364471    -0.32300
C3998       C  0.89115354  0.51777100  0.53412864     0.36800
H3999       H  0.90411206  0.94471609  0.52663922     0.17100
O4000       O  0.84816706  0.93754528  0.52572908    -0.59800
H4001       H  0.84828946  0.53734566  0.53580915     0.17100
O4002       O  0.90456007  0.54437502  0.53739594    -0.59900
H4003       H  0.90542540  0.54725416  0.55505859     0.44100
H4004       H  0.84715468  0.93402026  0.50815504     0.44100
C4005       C  0.59449802  0.98842450  0.53235615    -0.05000
C4006       C  0.61030957  0.96169563  0.53173936    -0.32400
C4007       C  0.64129917  0.96083390  0.53191350     0.36800
C4008       C  0.65806483  0.98703430  0.53271239    -0.05300
C4009       C  0.64223869  0.51377662  0.53336092    -0.32300
C4010       C  0.61133930  0.51466788  0.53306261     0.36800
H4011       H  0.59858866  0.94108954  0.53106702     0.17100
O4012       O  0.65486411  0.93399749  0.53100814    -0.59800
H4013       H  0.65388922  0.53442482  0.53399834     0.17100
O4014       O  0.59790217  0.54158525  0.53373390    -0.59900
H4015       H  0.59627518  0.54768988  0.51670474     0.50500
H4016       H  0.65692713  0.92788402  0.54800297     0.44100
C4017       C  0.90419245  0.71686581  0.40102856    -0.05000
C4018       C  0.88954556  0.74239357  0.40819010    -0.32400
C4019       C  0.85951341  0.74291741  0.40920155     0.36800
C4020       C  0.84371023  0.71769809  0.40282210    -0.05300
C4021       C  0.85823679  0.69168214  0.39631701    -0.32300
C4022       C  0.88864825  0.69117908  0.39540548     0.36800
H4023       H  0.90154882  0.76227224  0.41235127     0.17100
O4024       O  0.84558950  0.76867364  0.41507624    -0.59800
H4025       H  0.84599946  0.67225052  0.39137543     0.17100
O4026       O  0.90291848  0.66589030  0.38886734    -0.59900
H4027       H  0.90565054  0.66735583  0.37124500     0.44100
H4028       H  0.84563585  0.76941358  0.43288938     0.44100
C4029       C  0.58922927  0.79961797  0.39835297    -0.05000
C4030       C  0.60678774  0.82105731  0.38767347    -0.32400
C4031       C  0.63703498  0.81768154  0.38779135     0.36800
C4032       C  0.64944244  0.79295448  0.39888085    -0.05300
C4033       C  0.63192999  0.77277421  0.41089039    -0.32300
C4034       C  0.60198887  0.77594713  0.41070452     0.36800
H4035       H  0.59699940  0.83932465  0.37819757     0.17100
O4036       O  0.65423798  0.83799617  0.37659970    -0.59800
H4037       H  0.64151489  0.75371899  0.41947137     0.17100
O4038       O  0.58518728  0.75443826  0.42085003    -0.59900
H4039       H  0.58347627  0.76003560  0.43803755     0.44100
H4040       H  0.65444932  0.83207726  0.35942219     0.44100
C4041       C  0.90345268  0.52800907  0.39999281    -0.05000
C4042       C  0.89035353  0.55465925  0.39350528    -0.32400
C4043       C  0.86004869  0.55712880  0.39352508     0.36800
C4044       C  0.84326926  0.03279869  0.39997374    -0.05300
C4045       C  0.85662565  0.00683734  0.40769670    -0.32300
C4046       C  0.88661720  0.00444306  0.40784855     0.36800
H4047       H  0.90354603  0.57301273  0.38775956     0.17100
O4048       O  0.84704639  0.58298502  0.38685577    -0.59800
H4049       H  0.84362107  0.98799527  0.41271676     0.17100
O4050       O  0.89927783  0.97824806  0.41417789    -0.59900
H4051       H  0.90368391  0.98021698  0.43155967     0.44100
H4052       H  0.84740174  0.58290320  0.36904385     0.44100
C4053       C  0.65551511  0.95129837  0.39678149    -0.05000
C4054       C  0.64012355  0.47371277  0.40837479    -0.32400
C4055       C  0.61005898  0.47384718  0.40826792     0.36800
C4056       C  0.59491675  0.45117495  0.39649531    -0.05300
C4057       C  0.61016900  0.92768205  0.38591985    -0.32300
C4058       C  0.64063037  0.92774159  0.38593391     0.36800
H4059       H  0.65155752  0.49207833  0.41648671     0.17100
O4060       O  0.59556387  0.49736852  0.41815343    -0.59800
H4061       H  0.59850673  0.91014511  0.37689637     0.17100
O4062       O  0.65568260  0.90537100  0.37493631    -0.59900
H4063       H  0.65275376  0.90825766  0.35745887     0.44100
H4064       H  0.59496273  0.49341488  0.43565533     0.44100
C4065       C  0.74425088  0.74573493  0.25934200    -0.05000
C4066       C  0.75330566  0.77054359  0.27241706    -0.32400
C4067       C  0.75369092  0.77024995  0.29757791     0.36800
C4068       C  0.74484127  0.74497373  0.31004668    -0.05300
C4069       C  0.73601893  0.72004546  0.29704507    -0.32300
C4070       C  0.73563236  0.72032551  0.27184218     0.36800
H4071       H  0.76018800  0.79013944  0.26303801     0.17100
O4072       O  0.76248453  0.79485082  0.30990758    -0.59800
H4073       H  0.72922101  0.70046630  0.30648705     0.17100
O4074       O  0.72690835  0.69567078  0.25954946    -0.59900
H4075       H  0.70569899  0.69819641  0.25713479     0.44100
H4076       H  0.78390037  0.79293638  0.31131865     0.44100
C4077       C  0.70628844  0.90471755  0.17175943    -0.05000
C4078       C  0.68428862  0.88937482  0.15953690    -0.32400
C4079       C  0.68306962  0.85859816  0.16075507     0.36800
C4080       C  0.70392266  0.84329509  0.17441931    -0.05300
C4081       C  0.72434329  0.85892119  0.18800336    -0.32300
C4082       C  0.72569675  0.88934170  0.18674369     0.36800
H4083       H  0.66906586  0.90111925  0.14821723     0.17100
O4084       O  0.66240734  0.84354956  0.14786789    -0.59800
H4085       H  0.74068017  0.84731098  0.19834992     0.17100
O4086       O  0.74770230  0.90371946  0.19859136    -0.59900
H4087       H  0.74156407  0.90453853  0.21566139     0.44100
H4088       H  0.66870051  0.84461725  0.13086357     0.44100
C4089       C  0.79410690  0.59282406  0.17211826    -0.05000
C4090       C  0.81600172  0.60877456  0.16043069    -0.32400
C4091       C  0.81570104  0.63964200  0.16108602     0.36800
C4092       C  0.79352989  0.65437712  0.17376519    -0.05300
C4093       C  0.77341883  0.63826795  0.18709280    -0.32300
C4094       C  0.77350456  0.60781338  0.18633213     0.36800
H4095       H  0.83218614  0.59737451  0.14975290     0.17100
O4096       O  0.83623755  0.65522759  0.14866694    -0.59800
H4097       H  0.75616207  0.64942153  0.19678825     0.17100
O4098       O  0.75157402  0.59294411  0.19767795    -0.59900
H4099       H  0.75724184  0.59251091  0.21487011     0.44100
H4100       H  0.83119694  0.65274418  0.13145303     0.44100
C4101       C  0.74907394  0.99763124  0.30611863    -0.05000
C4102       C  0.74382112  0.52407835  0.29412693    -0.32400
C4103       C  0.74383880  0.52505373  0.26897701     0.36800
C4104       C  0.74924462  0.99930046  0.25554515    -0.05300
C4105       C  0.75480521  0.97285518  0.26766180    -0.32300
C4106       C  0.75449116  0.97186384  0.29278216     0.36800
H4107       H  0.73945421  0.54395984  0.30430773     0.17100
O4108       O  0.73757920  0.55099685  0.25759245    -0.59800
H4109       H  0.75919673  0.95291323  0.25755841     0.17100
O4110       O  0.76006856  0.94579853  0.30419279    -0.59900
H4111       H  0.74088995  0.93607701  0.30570457     0.44100
H4112       H  0.75511466  0.56339428  0.25970563     0.44100
C4113       C  0.99685203  0.75193956  0.30622392    -0.05000
C4114       C  0.49934139  0.77792247  0.29274634    -0.32400
C4115       C  0.49844673  0.77710203  0.26755867     0.36800
C4116       C  0.99483583  0.75009395  0.25540884    -0.05300
C4117       C  0.99193322  0.72424278  0.26890101    -0.32300
C4118       C  0.99325497  0.72496540  0.29405063     0.36800
H4119       H  0.50207385  0.79886604  0.30181956     0.17100
O4120       O  0.50219779  0.80263563  0.25491229    -0.59800
H4121       H  0.98908454  0.70330484  0.25984513     0.17100
O4122       O  0.99214702  0.69910932  0.30660783    -0.59900
H4123       H  0.97172323  0.69235342  0.30533752     0.44100
H4124       H  0.48388190  0.81386246  0.25701459     0.44100
C4125       C  0.94826127  0.83832743  0.16945172    -0.05000
C4126       C  0.46992653  0.85300359  0.18245333    -0.32400
C4127       C  0.47139177  0.88341849  0.18234275     0.36800
C4128       C  0.95065890  0.89974861  0.16947183    -0.05300
C4129       C  0.92757566  0.88529403  0.15788929    -0.32300
C4130       C  0.92627387  0.85450688  0.15785673     0.36800
H4131       H  0.48701125  0.84072136  0.19136724     0.17100
O4132       O  0.49429569  0.89699624  0.19364151    -0.59800
H4133       H  0.91158237  0.89780615  0.14792377     0.17100
O4134       O  0.90483617  0.84047882  0.14511036    -0.59900
H4135       H  0.89105291  0.83316572  0.15737497     0.44100
H4136       H  0.50948709  0.89901052  0.18113876     0.44100
C4137       C  0.03704458  0.65150898  0.17251683    -0.05000
C4138       C  0.01480840  0.63632334  0.18417467    -0.32400
C4139       C  0.01418172  0.60584496  0.18381603     0.36800
C4140       C  0.03633971  0.59003466  0.17203334    -0.05300
C4141       C  0.55983598  0.60509790  0.16172840    -0.32300
C4142       C  0.56024780  0.63590697  0.16194366     0.36800
H4143       H  0.99683218  0.64823134  0.19223855     0.17100
O4144       O  0.99095411  0.59164380  0.19391591    -0.59800
H4145       H  0.57696109  0.59304333  0.15265667     0.17100
O4146       O  0.58222617  0.65056438  0.15053345    -0.59900
H4147       H  0.59467394  0.65846870  0.16360238     0.44100
H4148       H  0.97666572  0.58922177  0.18069932     0.44100
C4149       C  0.99528816  0.48891156  0.30595607    -0.05000
C4150       C  0.98699437  0.51523097  0.29469769    -0.32400
C4151       C  0.98555165  0.51706928  0.26963400     0.36800
C4152       C  0.99327010  0.49263356  0.25539126    -0.05300
C4153       C  0.50096439  0.96601306  0.26663898    -0.32300
C4154       C  0.50178141  0.96396102  0.29173065     0.36800
H4155       H  0.98155762  0.53439832  0.30543133     0.17100
O4156       O  0.97677212  0.54285677  0.25918872    -0.59800
H4157       H  0.50627790  0.94685302  0.25584941     0.17100
O4158       O  0.50785542  0.93739803  0.30220935    -0.59900
H4159       H  0.52874725  0.93368427  0.29902856     0.44100
H4160       H  0.95541715  0.54099973  0.25732153     0.44100
loop_ 
_geom_bond_atom_site_label_1 
_geom_bond_atom_site_label_2 
_geom_bond_distance 
_geom_bond_site_symmetry_2 
_ccdc_geom_bond_type 
N1            C6   1.353       .  A
N1            C5   1.353       .  A
N1           H33   1.040       .  S
N2            C9   1.351       .  A
N2           C10   1.351       .  A
N3            C8   1.352       .  A
N3            C7   1.347       .  A
N3           H34   1.039       .  S
N4           C11   1.345       .  A
N4           C12   1.349       .  A
C5           C13   1.385       .  A
C5         C1061   1.411   1_445  A
C6           C22   1.417       .  A
C6           C14   1.390       .  A
C7           C15   1.386       .  A
C7           C24   1.406       .  A
C8           C16   1.387       .  A
C8         C1063   1.413       .  A
C9           C21   1.407       .  A
C9           C17   1.385       .  A
C10          C18   1.388       .  A
C10        C2104   1.412       .  A
C11          C19   1.386       .  A
C11        C2102   1.406       .  A
C12          C20   1.386       .  A
C12          C23   1.412   1_545  A
C13          C14   1.376       .  A
C13          H25   1.083       .  S
C14          H26   1.082       .  S
C15          C16   1.377       .  A
C15          H27   1.083       .  S
C16          H28   1.082       .  S
C17          C18   1.372       .  A
C17          H29   1.083       .  S
C18          H30   1.082       .  S
C19          C20   1.374       .  A
C19          H31   1.083       .  S
C20          H32   1.082       .  S
C21        C1045   1.411   1_655  A
C21         C340   1.475       .  S
C22        C2091   1.406       .  A
C22        C3100   1.478       .  S
C23        C1048   1.413       .  A
C23        C1032   1.487       .  S
C24        C2090   1.412       .  A
C24        C1008   1.476       .  S
N35          C40   1.351       .  A
N35          C39   1.353       .  A
N35        H2147   1.042       .  S
N36          C43   1.352       .  A
N36          C44   1.350       .  A
N37          C42   1.353       .  A
N37          C41   1.346       .  A
N37          H68   1.041       .  S
N38          C45   1.344       .  A
N38          C46   1.350       .  A
C39          C47   1.384       .  A
C39          C55   1.406   1_455  A
C40          C48   1.391       .  A
C40        C2136   1.415       .  A
C41          C49   1.386       .  A
C41          C58   1.405       .  A
C42          C57   1.415       .  A
C42          C50   1.387       .  A
C43          C55   1.406       .  A
C43          C51   1.384       .  A
C44          C52   1.389       .  A
C44        C2138   1.413       .  A
C45          C53   1.385       .  A
C45          C56   1.404       .  A
C46          C54   1.387       .  A
C46          C57   1.413       .  A
C47          C48   1.376       .  A
C47          H59   1.083       .  S
C48          H60   1.082       .  S
C49          C50   1.379       .  A
C49          H61   1.082       .  S
C50          H62   1.082       .  S
C51          C52   1.373       .  A
C51          H63   1.083       .  S
C52          H64   1.082       .  S
C53          C54   1.376       .  A
C53          H65   1.082       .  S
C54          H66   1.082       .  S
C55         C355   1.476       .  S
C56        C2120   1.415       .  A
C56        C1017   1.473       .  S
C57         C996   1.495       .  S
C58        C2124   1.413       .  A
C58        C1005   1.474       .  S
H67        N2115   1.042       .  S
N69          C74   1.354       .  A
N69          C73   1.352       .  A
N69         H101   1.041       .  S
N70          C77   1.352       .  A
N70          C78   1.353       .  A
N71          C76   1.352       .  A
N71          C75   1.346       .  A
N71         H102   1.041       .  S
N72          C79   1.343       .  A
N72          C80   1.348       .  A
C73          C81   1.385       .  A
C73          C89   1.410       .  A
C74          C90   1.418       .  A
C74          C82   1.390       .  A
C75          C83   1.386       .  A
C75          C92   1.405       .  A
C76          C84   1.387       .  A
C76        C1131   1.414   1_545  A
C77          C85   1.385       .  A
C77        C1129   1.410   1_545  A
C78          C92   1.415       .  A
C78          C86   1.388       .  A
C79          C87   1.387       .  A
C79          C90   1.404       .  A
C80          C88   1.386       .  A
C80          C91   1.410       .  A
C81          C82   1.378       .  A
C81          H93   1.083       .  S
C82          H94   1.082       .  S
C83          C84   1.378       .  A
C83          H95   1.082       .  S
C84          H96   1.082       .  S
C85          C86   1.374       .  A
C85          H97   1.083       .  S
C86          H98   1.081       .  S
C87          C88   1.375       .  A
C87          H99   1.083       .  S
C88         H100   1.082       .  S
C89        C1117   1.411       .  A
C89         C368   1.477       .  S
C90         C957   1.480       .  S
C91        C1116   1.414       .  A
C91         C984   1.488       .  S
C92         C969   1.481       .  S
N103        C108   1.354       .  A
N103        C107   1.351       .  A
N103        H135   1.042       .  S
N104        C111   1.346       .  A
N104        C112   1.351       .  A
N105        C110   1.348       .  A
N105        C109   1.353       .  A
N105        H136   1.040       .  S
N106        C113   1.352       .  A
N106        C114   1.350       .  A
C107        C115   1.392       .  A
C107        C123   1.417       .  A
C108        C124   1.405       .  A
C108        C116   1.382       .  A
C109        C117   1.387       .  A
C109        C126   1.414       .  A
C110        C125   1.409       .  A
C110        C118   1.387       .  A
C111        C123   1.409       .  A
C111        C119   1.387       .  A
C112        C126   1.413       .  A
C112        C120   1.386       .  A
C113        C121   1.383       .  A
C113        C124   1.404       .  A
C114        C122   1.390       .  A
C114        C125   1.414       .  A
C115        C116   1.374       .  A
C115        H127   1.081       .  S
C116        H128   1.083       .  S
C117        C118   1.378       .  A
C117        H129   1.082       .  S
C118        H130   1.083       .  S
C119        C120   1.377       .  A
C119        H131   1.082       .  S
C120        H132   1.082       .  S
C121        C122   1.372       .  A
C121        H133   1.083       .  S
C122        H134   1.081       .  S
C123        C960   1.478       .  S
C124        C383   1.478       .  S
C125        C972   1.477       .  S
C126        C945   1.491       .  S
N137        C142   1.357       .  A
N137        C141   1.347       .  A
N137        H169   1.038       .  S
N138        C145   1.349       .  A
N138        C146   1.353       .  A
N139        C144   1.349       .  A
N139        C143   1.354   1_545  A
N139        H170   1.041       .  S
N140        C147   1.350       .  A
N140        C148   1.344       .  A
C141        C149   1.385       .  A
C141        C157   1.409       .  A
C142        C150   1.390       .  A
C142       C2238   1.423       .  A
C143        C151   1.384       .  A
C143        C160   1.408       .  A
C144        C159   1.413       .  A
C144        C152   1.391       .  A
C145        C157   1.412       .  A
C145        C153   1.389       .  A
C146        C154   1.383       .  A
C146       C2240   1.408   1_455  A
C147        C155   1.389       .  A
C147        C158   1.416   1_545  A
C148        C156   1.385       .  A
C148        C159   1.404       .  A
C149        C150   1.375       .  A
C149        H161   1.083       .  S
C150        H162   1.080       .  S
C151        C152   1.373   1_565  A
C151        H163   1.082       .  S
C152        H164   1.083       .  S
C153        C154   1.373       .  A
C153        H165   1.082       .  S
C154        H166   1.082       .  S
C155        C156   1.372       .  A
C155        H167   1.080       .  S
C156        H168   1.083       .  S
C157        C936   1.471       .  S
C158       C2222   1.423       .  A
C158       C1324   1.491       .  S
C159        C921   1.465       .  S
C160       C2226   1.408       .  A
C160       C1029   1.491       .  S
N171        C176   1.345       .  A
N171        C175   1.357       .  A
N171        H203   1.038       .  S
N172        C179   1.352       .  A
N172        C180   1.345       .  A
N173        C178   1.357       .  A
N173        C177   1.352       .  A
N173        H204   1.040       .  S
N174        C181   1.350       .  A
N174        C182   1.353       .  A
C175        C183   1.391       .  A
C175       C2271   1.424   1_455  A
C176        C192   1.406       .  A
C176        C184   1.383       .  A
C177        C185   1.390       .  A
C177        C194   1.416       .  A
C178        C193   1.411       .  A
C178        C186   1.383       .  A
C179        C191   1.420       .  A
C179        C187   1.389       .  A
C180        C194   1.407       .  A
C180        C188   1.386       .  A
C181        C189   1.390       .  A
C181        C192   1.413       .  A
C182        C190   1.383       .  A
C182       C2273   1.407   1_455  A
C183        C184   1.376       .  A
C183        H195   1.079       .  S
C184        H196   1.083       .  S
C185        C186   1.372       .  A
C185        H197   1.082       .  S
C186        H198   1.082       .  S
C187        C188   1.370       .  A
C187        H199   1.080       .  S
C188        H200   1.083       .  S
C189        C190   1.371       .  A
C189        H201   1.081       .  S
C190        H202   1.082       .  S
C191       C2255   1.424       .  A
C191        C298   1.495       .  S
C192        C909   1.471       .  S
C193       C2262   1.407       .  A
C193        C993   1.494       .  S
C194        C897   1.469       .  S
N205        C210   1.347       .  A
N205        C209   1.357       .  A
N205        H237   1.037       .  S
N206        C213   1.351       .  A
N206        C214   1.344       .  A
N207        C212   1.354       .  A
N207        C211   1.350       .  A
N207        H238   1.040       .  S
N208        C215   1.349       .  A
N208        C216   1.352       .  A
C209        C217   1.392       .  A
C209        C225   1.424       .  A
C210        C226   1.408       .  A
C210        C218   1.384       .  A
C211        C219   1.391       .  A
C211        C228   1.415       .  A
C212        C227   1.407       .  A
C212        C220   1.383       .  A
C213        C225   1.417       .  A
C213        C221   1.390       .  A
C214        C228   1.405       .  A
C214        C222   1.385       .  A
C215        C223   1.389       .  A
C215        C226   1.412       .  A
C216        C224   1.382       .  A
C216        C227   1.405       .  A
C217        C218   1.374       .  A
C217        H229   1.080       .  S
C218        H230   1.083       .  S
C219        C220   1.372       .  A
C219        H231   1.082       .  S
C220        H232   1.083       .  S
C221        C222   1.370       .  A
C221        H233   1.080       .  S
C222        H234   1.083       .  S
C223        C224   1.370       .  A
C223        H235   1.082       .  S
C224        H236   1.082       .  S
C225        C314   1.489       .  S
C226        C933   1.470       .  S
C227        C981   1.483       .  S
C228        C924   1.467       .  S
N239        C244   1.355       .  A
N239        C243   1.346       .  A
N239        H271   1.037       .  S
N240        C247   1.349       .  A
N240        C248   1.352       .  A
N241        C246   1.351       .  A
N241        C245   1.356       .  A
N241        H272   1.040       .  S
N242        C249   1.352       .  A
N242        C250   1.346       .  A
C243        C251   1.385       .  A
C243        C259   1.408       .  A
C244        C260   1.418       .  A
C244        C252   1.391       .  A
C245        C253   1.384       .  A
C245        C262   1.411       .  A
C246        C261   1.417       .  A
C246        C254   1.391       .  A
C247        C259   1.412       .  A
C247        C255   1.389       .  A
C248        C262   1.407       .  A
C248        C256   1.384       .  A
C249        C257   1.388       .  A
C249        C260   1.417       .  A
C250        C258   1.387       .  A
C250        C261   1.410       .  A
C251        C252   1.372       .  A
C251        H263   1.083       .  S
C252        H264   1.080       .  S
C253        C254   1.373       .  A
C253        H265   1.082       .  S
C254        H266   1.082       .  S
C255        C256   1.372       .  A
C255        H267   1.082       .  S
C256        H268   1.082       .  S
C257        C258   1.373       .  A
C257        H269   1.081       .  S
C258        H270   1.083       .  S
C259        C912   1.469       .  S
C260        C325   1.486       .  S
C261        C900   1.471       .  S
C262        C948   1.488       .  S
O273       Cu281   2.008       .  S
O273       C1323   1.277   1_545  A
O274       Cu281   2.011       .  S
O274       C1324   1.278   1_545  A
O275       Cu281   2.095       .  S
O275       C1325   1.288   1_545  A
O276      Cu2361   2.074       .  S
O276       C1326   1.286   1_545  A
O277      Cu2362   2.092       .  S
O277        C286   1.288       .  A
O278       Cu282   2.080       .  S
O278        C285   1.287       .  A
O279       Cu282   2.013       .  S
O279        C284   1.277       .  A
O280       Cu282   2.014       .  S
O280        C283   1.277       .  A
Cu281      O2356   2.074       .  S
Cu281     Cu1322   2.357   1_545  S
Cu282      O2357   2.092       .  S
Cu282     Cu1321   2.357       .  S
C283        C541   1.493       .  S
C283       O1313   1.277       .  A
C284       C1198   1.491       .  S
C284       O1314   1.278       .  A
C285        C873   1.542       .  S
C285       O1315   1.288       .  A
C286        C885   1.540       .  S
C286       O1316   1.286       .  A
O287       Cu295   2.026       .  S
O287        C297   1.279       .  A
O288       Cu295   2.024       .  S
O288        C298   1.278       .  A
O289       Cu295   2.089       .  S
O289        C299   1.288       .  A
O290      Cu2375   2.090   1_455  S
O290        C300   1.288       .  A
O291      Cu2376   2.082   1_455  S
O291        C300   1.286       .  A
O292       Cu296   2.083       .  S
O292        C299   1.287       .  A
O293       Cu296   2.005       .  S
O293        C298   1.277       .  A
O294       Cu296   2.001       .  S
O294        C297   1.276       .  A
Cu295      O2370   2.090       .  S
Cu295      Cu296   2.355       .  S
Cu296      O2371   2.082       .  S
C297        C575   1.492       .  S
C299        C852   1.541       .  S
C300        C861   1.542       .  S
O301       Cu309   2.094       .  S
O301        C311   1.288       .  A
O302       Cu309   2.079       .  S
O302        C312   1.287       .  A
O303       Cu309   1.999       .  S
O303        C313   1.275       .  A
O304       Cu309   1.999       .  S
O304        C314   1.275       .  A
O305       Cu310   2.014       .  S
O305       C1354   1.279   1_545  A
O306       Cu310   2.011       .  S
O306       C1353   1.279   1_545  A
O307       Cu310   2.093       .  S
O307       C1352   1.288   1_545  A
O308       Cu310   2.077       .  S
O308       C1351   1.286   1_545  A
Cu309     Cu1350   2.358       .  S
Cu310     Cu1349   2.358   1_545  S
C311        C888   1.541       .  S
C311       O1348   1.286       .  A
C312        C876   1.542       .  S
C312       O1347   1.288       .  A
C313        C609   1.485       .  S
C313       O1346   1.279       .  A
C314       O1345   1.279       .  A
O315       Cu323   2.014       .  S
O315        C325   1.279       .  A
O316       Cu323   2.026       .  S
O316        C326   1.279       .  A
O317       Cu323   2.083       .  S
O317        C327   1.287       .  A
O318       Cu323   2.082       .  S
O318        C328   1.286       .  A
O319       Cu324   2.092       .  S
O319        C328   1.288       .  A
O320       Cu324   2.086       .  S
O320        C327   1.288       .  A
O321       Cu324   2.005       .  S
O321        C326   1.277       .  A
O322       Cu324   2.002       .  S
O322        C325   1.276       .  A
Cu323      Cu324   2.357       .  S
C326        C643   1.494       .  S
C327        C849   1.541       .  S
C328        C864   1.542       .  S
O329       Cu337   1.996   1_556  S
O329        C339   1.275   1_455  A
O330       Cu337   2.003       .  S
O330        C340   1.276   1_455  A
O331       Cu337   2.066       .  S
O331        C341   1.285   1_455  A
O332      Cu1377   2.063   1_545  S
O332        C342   1.285   1_455  A
O333      Cu3458   2.059   1_545  S
O333        C342   1.284       .  A
O334      Cu2418   2.058       .  S
O334        C341   1.284       .  A
O335      Cu2418   2.009       .  S
O335        C340   1.278       .  A
O336      Cu2418   2.008   1_556  S
O336        C339   1.277       .  A
Cu337      O1372   2.062       .  S
Cu337     Cu2418   2.366   1_455  S
Cu338      O3453   2.059       .  S
Cu338      O2414   2.058       .  S
Cu338      O2415   2.009       .  S
Cu338      O2416   2.008   1_554  S
Cu338     Cu2417   2.366       .  S
C339        C405   1.473   1_655  S
C341        C825   1.523       .  S
C342        C837   1.524       .  S
O343       Cu351   2.059       .  S
O343        C353   1.284   1_455  A
O344       Cu351   2.056       .  S
O344        C354   1.283   1_455  A
O345       Cu351   2.017       .  S
O345        C355   1.278   1_455  A
O346       Cu351   2.013   1_556  S
O346        C356   1.278   1_455  A
O347      Cu2432   1.997   1_556  S
O347        C356   1.275       .  A
O348      Cu2432   2.001       .  S
O348        C355   1.276       .  A
O349      Cu2432   2.060       .  S
O349        C354   1.285       .  A
O350      Cu2432   2.068       .  S
O350        C353   1.285       .  A
Cu351     Cu2432   2.365   1_455  S
Cu352      O2427   1.997   1_554  S
Cu352      O2428   2.002       .  S
Cu352      O2429   2.060       .  S
Cu352      O2430   2.068       .  S
Cu352     Cu2431   2.366       .  S
C353        C840   1.525       .  S
C354        C828   1.522       .  S
C356        C439   1.473       .  S
O357       Cu365   2.024   1_556  S
O357        C367   1.279       .  A
O358       Cu365   2.016       .  S
O358        C368   1.278       .  A
O359      Cu1405   2.056   1_545  S
O359        C369   1.283       .  A
O360       Cu365   2.058       .  S
O360        C370   1.283       .  A
O361       Cu366   2.067       .  S
O361        C370   1.286       .  A
O362      Cu1406   2.065   1_545  S
O362        C369   1.285       .  A
O363       Cu366   2.004       .  S
O363        C368   1.276       .  A
O364       Cu366   2.006   1_556  S
O364        C367   1.276       .  A
Cu365      O1399   2.056       .  S
Cu365      Cu366   2.365       .  S
Cu366      O1402   2.065       .  S
C367        C473   1.483       .  S
C369        C813   1.523       .  S
C370        C801   1.524       .  S
O371       Cu379   2.059       .  S
O371        C381   1.284       .  A
O372       Cu379   2.062       .  S
O372        C382   1.285       .  A
O373       Cu379   2.008       .  S
O373        C383   1.276       .  A
O374       Cu379   2.006   1_556  S
O374        C384   1.276       .  A
O375       Cu380   2.022   1_556  S
O375        C384   1.279       .  A
O376       Cu380   2.020       .  S
O376        C383   1.278       .  A
O377       Cu380   2.064       .  S
O377        C382   1.284       .  A
O378       Cu380   2.061       .  S
O378        C381   1.284       .  A
Cu379      Cu380   2.365       .  S
C381        C816   1.523       .  S
C382        C804   1.524       .  S
C384        C508   1.481       .  S
N385        C390   1.353       .  A
N385        C389   1.353       .  A
N385        H417   1.040       .  S
N386        C393   1.351       .  A
N386        C394   1.351       .  A
N387        C392   1.352       .  A
N387        C391   1.347       .  A
N387        H418   1.039       .  S
N388        C395   1.345       .  A
N388        C396   1.349       .  A
C389        C397   1.385       .  A
C389        C405   1.409       .  A
C390        C398   1.390       .  A
C390       C2486   1.417       .  A
C391        C399   1.384       .  A
C391        C408   1.402       .  A
C392        C400   1.389       .  A
C392       C1447   1.414   1_545  A
C393        C401   1.386       .  A
C393       C1445   1.409   1_645  A
C394        C402   1.387       .  A
C394       C2488   1.410       .  A
C395        C403   1.386       .  A
C395        C406   1.406       .  A
C396        C404   1.386       .  A
C396        C407   1.412       .  A
C397        C398   1.373       .  A
C397        H409   1.083       .  S
C398        H410   1.082       .  S
C399        C400   1.375       .  A
C399        H411   1.082       .  S
C400        H412   1.082       .  S
C401        C402   1.372       .  A
C401        H413   1.082       .  S
C402        H414   1.082       .  S
C403        C404   1.375       .  A
C403        H415   1.083       .  S
C404        H416   1.082       .  S
C405       C1433   1.409   1_455  A
C406       C2470   1.417       .  A
C406        C765   1.476       .  S
C407       C1432   1.414       .  A
C407        C789   1.486       .  S
C408       C2474   1.410       .  A
C408        C777   1.471       .  S
N419        C424   1.352       .  A
N419        C423   1.352       .  A
N419        H451   1.040       .  S
N420        C427   1.352       .  A
N420        C428   1.351       .  A
N421        C426   1.353       .  A
N421        C425   1.349       .  A
N421        H452   1.039       .  S
N422        C429   1.345       .  A
N422        C430   1.348       .  A
C423        C431   1.385       .  A
C423        C439   1.407       .  A
C424        C432   1.390       .  A
C424       C2520   1.414       .  A
C425        C433   1.386       .  A
C425        C442   1.408       .  A
C426        C441   1.416       .  A
C426        C434   1.388       .  A
C427        C439   1.408   1_455  A
C427        C435   1.385       .  A
C428        C436   1.388       .  A
C428       C2522   1.413       .  A
C429        C437   1.385       .  A
C429        C440   1.402       .  A
C430        C438   1.387       .  A
C430        C441   1.411       .  A
C431        C432   1.372       .  A
C431        H443   1.083       .  S
C432        H444   1.083       .  S
C433        C434   1.376       .  A
C433        H445   1.083       .  S
C434        H446   1.082       .  S
C435        C436   1.373       .  A
C435        H447   1.083       .  S
C436        H448   1.082       .  S
C437        C438   1.375       .  A
C437        H449   1.082       .  S
C438        H450   1.082       .  S
C440       C2504   1.414       .  A
C440        C780   1.472       .  S
C441        C753   1.486       .  S
C442       C2508   1.412       .  A
C442        C768   1.477       .  S
N453        C458   1.355       .  A
N453        C457   1.354       .  A
N453        H485   1.040       .  S
N454        C461   1.354       .  A
N454        C462   1.354       .  A
N455        C460   1.354       .  A
N455        C459   1.348       .  A
N455        H486   1.038       .  S
N456        C463   1.347       .  A
N456        C464   1.350       .  A
C457        C465   1.385       .  A
C457        C473   1.413       .  A
C458        C474   1.418       .  A
C458        C466   1.390       .  A
C459        C467   1.385       .  A
C459        C476   1.409       .  A
C460        C468   1.389       .  A
C460       C1515   1.418   1_545  A
C461        C469   1.384       .  A
C461       C1513   1.411   1_545  A
C462        C476   1.417       .  A
C462        C470   1.388       .  A
C463        C471   1.387       .  A
C463        C474   1.408       .  A
C464        C472   1.387       .  A
C464        C475   1.414       .  A
C465        C466   1.373       .  A
C465        H477   1.083       .  S
C466        H478   1.082       .  S
C467        C468   1.379       .  A
C467        H479   1.082       .  S
C468        H480   1.082       .  S
C469        C470   1.371       .  A
C469        H481   1.083       .  S
C470        H482   1.081       .  S
C471        C472   1.374       .  A
C471        H483   1.083       .  S
C472        H484   1.082       .  S
C473       C1501   1.411       .  A
C474        C717   1.480       .  S
C475       C1500   1.419       .  A
C475        C741   1.491       .  S
C476        C729   1.484       .  S
N487        C492   1.354       .  A
N487        C491   1.355       .  A
N487        H519   1.041       .  S
N488        C495   1.345       .  A
N488        C496   1.350       .  A
N489        C494   1.347       .  A
N489        C493   1.353       .  A
N489        H520   1.040       .  S
N490        C497   1.353       .  A
N490        C498   1.353       .  A
C491        C499   1.390       .  A
C491        C507   1.420       .  A
C492        C508   1.413       .  A
C492        C500   1.385       .  A
C493        C501   1.386       .  A
C493        C510   1.412       .  A
C494        C509   1.407       .  A
C494        C502   1.387       .  A
C495        C507   1.407       .  A
C495        C503   1.386       .  A
C496        C510   1.411       .  A
C496        C504   1.385       .  A
C497        C505   1.386       .  A
C497        C508   1.411       .  A
C498        C506   1.388       .  A
C498        C509   1.415       .  A
C499        C500   1.378       .  A
C499        H511   1.082       .  S
C500        H512   1.083       .  S
C501        C502   1.378       .  A
C501        H513   1.082       .  S
C502        H514   1.083       .  S
C503        C504   1.377       .  A
C503        H515   1.082       .  S
C504        H516   1.082       .  S
C505        C506   1.373       .  A
C505        H517   1.083       .  S
C506        H518   1.082       .  S
C507        C732   1.482       .  S
C509        C720   1.478       .  S
C510        C705   1.488       .  S
N521        C526   1.347       .  A
N521        C525   1.357       .  A
N521        H553   1.038       .  S
N522        C529   1.351       .  A
N522        C530   1.345       .  A
N523        C528   1.353       .  A
N523        C527   1.350       .  A
N523        H554   1.040       .  S
N524        C531   1.350       .  A
N524        C532   1.353       .  A
C525        C533   1.392       .  A
C525       C2621   1.424       .  A
C526        C542   1.408       .  A
C526        C534   1.383       .  A
C527        C535   1.390       .  A
C527        C544   1.412       .  A
C528        C543   1.407       .  A
C528        C536   1.384       .  A
C529        C541   1.419       .  A
C529        C537   1.390       .  A
C530        C544   1.405       .  A
C530        C538   1.384       .  A
C531        C539   1.389       .  A
C531        C542   1.414       .  A
C532        C540   1.383       .  A
C532       C2623   1.407       .  A
C533        C534   1.374       .  A
C533        H545   1.079       .  S
C534        H546   1.083       .  S
C535        C536   1.374       .  A
C535        H547   1.082       .  S
C536        H548   1.082       .  S
C537        C538   1.373       .  A
C537        H549   1.080       .  S
C538        H550   1.083       .  S
C539        C540   1.372       .  A
C539        H551   1.081       .  S
C540        H552   1.082       .  S
C541       C2605   1.425       .  A
C542        C693   1.474       .  S
C543       C2612   1.407       .  A
C543        C792   1.482       .  S
C544        C681   1.470       .  S
N555        C560   1.347       .  A
N555        C559   1.356       .  A
N555        H587   1.038       .  S
N556        C563   1.352       .  A
N556        C564   1.345       .  A
N557        C562   1.355       .  A
N557        C561   1.351       .  A
N557        H588   1.042       .  S
N558        C565   1.348       .  A
N558        C566   1.350       .  A
C559        C567   1.392       .  A
C559       C2655   1.424   1_455  A
C560        C576   1.405       .  A
C560        C568   1.382       .  A
C561        C569   1.392       .  A
C561        C578   1.418       .  A
C562        C577   1.409       .  A
C562        C570   1.383       .  A
C563        C575   1.418       .  A
C563        C571   1.388       .  A
C564        C578   1.410       .  A
C564        C572   1.386       .  A
C565        C573   1.388       .  A
C565        C576   1.408       .  A
C566        C574   1.384       .  A
C566       C2657   1.405   1_455  A
C567        C568   1.373       .  A
C567        H579   1.080       .  S
C568        H580   1.083       .  S
C569        C570   1.373       .  A
C569        H581   1.081       .  S
C570        H582   1.082       .  S
C571        C572   1.375       .  A
C571        H583   1.080       .  S
C572        H584   1.083       .  S
C573        C574   1.370       .  A
C573        H585   1.082       .  S
C574        H586   1.082       .  S
C575       C2639   1.424       .  A
C576        C669   1.469       .  S
C577       C2646   1.405       .  A
C577        C756   1.491       .  S
C578        C657   1.474       .  S
N589        C594   1.347       .  A
N589        C593   1.354       .  A
N589        H621   1.040       .  S
N590        C597   1.351       .  A
N590        C598   1.345       .  A
N591        C596   1.353       .  A
N591        C595   1.350       .  A
N591        H622   1.041       .  S
N592        C599   1.350       .  A
N592        C600   1.353       .  A
C593        C601   1.391       .  A
C593        C609   1.419       .  A
C594        C610   1.406       .  A
C594        C602   1.384       .  A
C595        C603   1.390       .  A
C595        C612   1.413       .  A
C596        C611   1.411       .  A
C596        C604   1.385       .  A
C597        C609   1.415       .  A
C597        C605   1.389       .  A
C598        C612   1.407       .  A
C598        C606   1.386       .  A
C599        C607   1.388       .  A
C599        C610   1.412       .  A
C600        C608   1.383       .  A
C600        C611   1.409       .  A
C601        C602   1.375       .  A
C601        H613   1.079       .  S
C602        H614   1.083       .  S
C603        C604   1.374       .  A
C603        H615   1.082       .  S
C604        H616   1.082       .  S
C605        C606   1.372       .  A
C605        H617   1.081       .  S
C606        H618   1.083       .  S
C607        C608   1.372       .  A
C607        H619   1.082       .  S
C608        H620   1.082       .  S
C610        C696   1.475       .  S
C611        C744   1.493       .  S
C612        C684   1.469       .  S
N623        C628   1.346       .  A
N623        C627   1.358       .  A
N623        H655   1.036       .  S
N624        C631   1.352       .  A
N624        C632   1.344       .  A
N625        C630   1.357       .  A
N625        C629   1.352       .  A
N625        H656   1.041       .  S
N626        C633   1.349       .  A
N626        C634   1.352       .  A
C627        C635   1.391       .  A
C627        C643   1.424       .  A
C628        C644   1.408       .  A
C628        C636   1.384       .  A
C629        C637   1.391       .  A
C629        C646   1.420       .  A
C630        C645   1.410       .  A
C630        C638   1.382       .  A
C631        C643   1.416       .  A
C631        C639   1.387       .  A
C632        C646   1.410       .  A
C632        C640   1.387       .  A
C633        C641   1.389       .  A
C633        C644   1.412       .  A
C634        C642   1.384       .  A
C634        C645   1.407       .  A
C635        C636   1.373       .  A
C635        H647   1.081       .  S
C636        H648   1.083       .  S
C637        C638   1.374       .  A
C637        H649   1.081       .  S
C638        H650   1.082       .  S
C639        C640   1.374       .  A
C639        H651   1.080       .  S
C640        H652   1.083       .  S
C641        C642   1.372       .  A
C641        H653   1.082       .  S
C642        H654   1.082       .  S
C644        C672   1.469       .  S
C645        C708   1.489       .  S
C646        C660   1.475       .  S
C657        C658   1.404       .  A
C657        C662   1.405       .  A
C658        C659   1.401       .  A
C658        H663   1.083       .  S
C659        C660   1.406       .  A
C659        O664   1.372       .  S
C660        C661   1.400       .  A
C661        C662   1.385       .  A
C661        H665   1.084       .  S
C662        O666   1.373       .  S
O664        H668   0.992       .  S
O666        H667   0.992       .  S
C669        C670   1.403       .  A
C669        C674   1.405       .  A
C670        C671   1.399       .  A
C670        H675   1.083       .  S
C671        C672   1.406       .  A
C671        O676   1.371       .  S
C672        C673   1.398       .  A
C673        C674   1.383       .  A
C673        H677   1.084       .  S
C674        O678   1.373       .  S
O676        H680   0.992       .  S
O678        H679   0.992       .  S
C681        C686   1.406       .  A
C681       C1722   1.402       .  A
C682        C683   1.400       .  A
C682       C1721   1.402       .  A
C682        H687   1.083       .  S
C683       C1724   1.406       .  A
C683        O688   1.371       .  S
C684        C685   1.397       .  A
C684       C1723   1.406       .  A
C685        C686   1.385       .  A
C685        H689   1.084       .  S
C686        O690   1.373       .  S
O688        H692   0.992       .  S
O690        H691   0.992       .  S
C693        C698   1.407       .  A
C693       C1734   1.399       .  A
C694        C695   1.386       .  A
C694       C1733   1.399       .  A
C694        H699   1.084       .  S
C695       C1736   1.406       .  A
C695        O700   1.373       .  S
C696        C697   1.404       .  A
C696       C1735   1.406       .  A
C697        C698   1.401       .  A
C697        H701   1.083       .  S
C698        O702   1.371       .  S
O700        H704   0.992   1_565  S
O702        H703   0.992       .  S
C705        C706   1.403       .  A
C705        C710   1.408       .  A
C706        C707   1.402       .  A
C706        H711   1.084       .  S
C707        C708   1.408       .  A
C707        O712   1.371       .  S
C708        C709   1.404       .  A
C709        C710   1.403       .  A
C709        H713   1.083       .  S
C710        O714   1.371       .  S
O712        H716   0.991       .  S
O714        H715   0.991       .  S
C717        C718   1.407       .  A
C717        C722   1.405       .  A
C718        C719   1.405       .  A
C718        H723   1.083       .  S
C719        C720   1.408       .  A
C719        O724   1.371       .  S
C720        C721   1.399       .  A
C721        C722   1.384       .  A
C721        H725   1.084       .  S
C722        O726   1.373       .  S
O724        H728   0.992       .  S
O726        H727   0.992       .  S
C729        C730   1.406       .  A
C729        C734   1.408       .  A
C730        C731   1.405       .  A
C730        H735   1.083       .  S
C731        C732   1.407       .  A
C731        O736   1.371       .  S
C732        C733   1.400       .  A
C733        C734   1.391       .  A
C733        H737   1.084       .  S
C734        O738   1.373       .  S
O736        H740   0.991       .  S
O738        H739   0.992       .  S
C741        C742   1.405       .  A
C741       C1786   1.407       .  A
C742        C743   1.402       .  A
C742        H747   1.084       .  S
C743        C744   1.409       .  A
C743        O748   1.373       .  S
C744       C1785   1.406       .  A
C745        C746   1.401       .  A
C745       C1784   1.406   1_545  A
C745        H749   1.084       .  S
C746       C1781   1.407   1_545  A
C746        O750   1.372       .  S
O748        H752   0.992       .  S
O750        H751   0.991       .  S
C753        C758   1.407       .  A
C753       C2834   1.403       .  A
C754        C755   1.401       .  A
C754       C2833   1.403       .  A
C754        H759   1.084       .  S
C755       C2836   1.411       .  A
C755        O760   1.373       .  S
C756        C757   1.405       .  A
C756       C2835   1.411       .  A
C757        C758   1.397       .  A
C757        H761   1.084       .  S
C758        O762   1.371       .  S
O760        H764   0.992   1_655  S
O762        H763   0.992       .  S
C765        C766   1.399       .  A
C765       C2850   1.406       .  A
C766        C767   1.386       .  A
C766        H771   1.084       .  S
C767        C768   1.406       .  A
C767        O772   1.373       .  S
C768       C2849   1.406       .  A
C769        C770   1.404       .  A
C769       C2848   1.406       .  A
C769        H773   1.083       .  S
C770       C2845   1.406       .  A
C770        O774   1.371       .  S
O772        H776   0.992       .  S
O774        H775   0.991       .  S
C777        C782   1.406       .  A
C777       C2858   1.398       .  A
C778        C779   1.386       .  A
C778       C2857   1.398       .  A
C778        H783   1.084   1_655  S
C779       C2860   1.405       .  A
C779        O784   1.373   1_655  S
C780        C781   1.403       .  A
C780       C2859   1.405       .  A
C781        C782   1.403       .  A
C781        H785   1.083       .  S
C782        O786   1.370       .  S
O784        H788   0.992       .  S
O786        H787   0.992       .  S
C789        C794   1.408       .  A
C789       C1830   1.404       .  A
C790       C1829   1.404   1_545  A
C790       C2871   1.400       .  A
C790       H2875   1.084       .  S
C791       C2870   1.400       .  A
C791       C3912   1.406   1_545  A
C791        O796   1.371       .  S
C792        C793   1.402       .  A
C792       C3911   1.406       .  A
C793        C794   1.400       .  A
C793        H797   1.083       .  S
C794        O798   1.372       .  S
H795       C2870   1.084       .  S
O796        H800   0.992       .  S
O798        H799   0.991       .  S
C801        C802   1.411       .  A
C801        C806   1.419       .  A
C802        C803   1.417       .  A
C802        H807   1.083       .  S
C803        C804   1.418       .  A
C803        O808   1.371       .  S
C804        C805   1.412       .  A
C805        C806   1.418       .  A
C805        H809   1.083       .  S
C806        O810   1.371       .  S
O808        H812   0.992       .  S
O810        H811   0.992       .  S
C813        C814   1.411       .  A
C813        C818   1.419       .  A
C814        C815   1.416       .  A
C814        H819   1.083       .  S
C815        C816   1.418       .  A
C815        O820   1.371       .  S
C816        C817   1.412       .  A
C817        C818   1.417       .  A
C817        H821   1.083       .  S
C818        O822   1.371       .  S
O820        H824   0.992       .  S
O822        H823   0.992       .  S
C825        C830   1.419   1_655  A
C825       C2906   1.411       .  A
C826        C827   1.415       .  A
C826       C2905   1.411       .  A
C826        H831   1.083       .  S
C827       C2908   1.417       .  A
C827        O832   1.371       .  S
C828        C829   1.413   1_655  A
C828       C2907   1.417       .  A
C829        C830   1.418       .  A
C829        H833   1.083       .  S
C830        O834   1.371       .  S
O832        H836   0.992       .  S
O834        H835   0.992       .  S
C837        C838   1.413       .  A
C837        C842   1.417   1_655  A
C838        C839   1.419       .  A
C838        H843   1.083       .  S
C839        C840   1.419       .  A
C839        O844   1.371       .  S
C840        C841   1.412   1_655  A
C841        C842   1.416       .  A
C841        H845   1.083       .  S
C842        O846   1.371       .  S
O844        H848   0.992       .  S
O846        H847   0.992       .  S
C849        C850   1.416       .  A
C849        C854   1.421       .  A
C850        C851   1.425       .  A
C850        H855   1.083       .  S
C851        C852   1.421       .  A
C851        O856   1.371       .  S
C852        C853   1.415       .  A
C853        C854   1.424       .  A
C853        H857   1.083       .  S
C854        O858   1.371       .  S
O856        H860   0.991       .  S
O858        H859   0.992       .  S
C861        C862   1.415       .  A
C861        C866   1.422       .  A
C862        C863   1.425       .  A
C862        H867   1.083       .  S
C863        C864   1.422       .  A
C863        O868   1.371       .  S
C864        C865   1.415       .  A
C865        C866   1.425       .  A
C865        H869   1.083       .  S
C866        O870   1.371       .  S
O868        H872   0.992       .  S
O870        H871   0.992       .  S
C873        C874   1.414       .  A
C873       C1918   1.422       .  A
C874        C875   1.423       .  A
C874        H879   1.083       .  S
C875        C876   1.421       .  A
C875        O880   1.371       .  S
C876       C1917   1.417       .  A
C877        C878   1.428       .  A
C877       C1916   1.417   1_545  A
C877        H881   1.083       .  S
C878       C1913   1.422   1_545  A
C878        O882   1.371       .  S
O880        H884   0.992       .  S
O882        H883   0.992       .  S
C885        C886   1.416       .  A
C885       C1930   1.421       .  A
C886        C887   1.426       .  A
C886        H891   1.083       .  S
C887        C888   1.422       .  A
C887        O892   1.371       .  S
C888       C1929   1.414       .  A
C889        C890   1.422       .  A
C889       C1928   1.414   1_545  A
C889        H893   1.083       .  S
C890       C1925   1.421   1_545  A
C890        O894   1.371       .  S
O892        H896   0.992       .  S
O894        H895   0.992       .  S
C897        C898   1.398       .  A
C897        C902   1.405       .  A
C898        C899   1.383       .  A
C898        H903   1.084       .  S
C899        C900   1.404       .  A
C899        O904   1.372       .  S
C900        C901   1.404       .  A
C901        C902   1.401       .  A
C901        H905   1.083       .  S
C902        O906   1.371       .  S
O904        H908   0.992       .  S
O906        H907   0.992       .  S
C909        C910   1.403       .  A
C909        C914   1.407       .  A
C910        C911   1.400       .  A
C910        H915   1.083       .  S
C911        C912   1.405       .  A
C911        O916   1.371       .  S
C912        C913   1.396       .  A
C913        C914   1.385       .  A
C913        H917   1.084       .  S
C914        O918   1.373       .  S
O916        H920   0.992       .  S
O918        H919   0.992       .  S
C921        C922   1.401       .  A
C921       C1966   1.403       .  A
C922        C923   1.399       .  A
C922        H927   1.083       .  S
C923       C1964   1.404       .  A
C923        O928   1.371       .  S
C924        C925   1.399       .  A
C924       C1963   1.404       .  A
C925        C926   1.384       .  A
C925        H929   1.084       .  S
C926       C1961   1.403       .  A
C926        O930   1.373       .  S
O928        H932   0.992       .  S
O930        H931   0.992       .  S
C933        C938   1.406       .  A
C933       C1974   1.398       .  A
C934        C935   1.383       .  A
C934       C1973   1.398       .  A
C934        H939   1.084       .  S
C935        C936   1.405       .  A
C935        O940   1.373       .  S
C936       C1977   1.404       .  A
C937        C938   1.402       .  A
C937       C1976   1.404       .  A
C937        H941   1.083       .  S
C938        O942   1.372       .  S
O940        H944   0.992       .  S
O942        H943   0.991       .  S
C945        C946   1.404       .  A
C945        C950   1.410       .  A
C946        C947   1.401       .  A
C946        H951   1.083       .  S
C947        C948   1.407       .  A
C947        O952   1.371       .  S
C948        C949   1.403       .  A
C949        C950   1.403       .  A
C949        H953   1.083       .  S
C950        O954   1.371       .  S
O952        H956   0.992       .  S
O954        H955   0.991       .  S
C957        C958   1.404       .  A
C957        C962   1.408       .  A
C958        C959   1.403       .  A
C958        H963   1.083       .  S
C959        C960   1.409       .  A
C959        O964   1.372       .  S
C960        C961   1.398       .  A
C961        C962   1.388       .  A
C961        H965   1.084       .  S
C962        O966   1.373       .  S
O964        H968   0.992       .  S
O966        H967   0.992       .  S
C969        C970   1.405       .  A
C969        C974   1.408       .  A
C970        C971   1.404       .  A
C970        H975   1.083       .  S
C971        C972   1.408       .  A
C971        O976   1.372       .  S
C972        C973   1.398       .  A
C973        C974   1.386       .  A
C973        H977   1.084       .  S
C974        O978   1.373       .  S
O976        H980   0.992       .  S
O978        H979   0.992       .  S
C981        C986   1.406       .  A
C981       C2022   1.401       .  A
C982        C983   1.401       .  A
C982       C2021   1.401   1_545  A
C982        H987   1.083       .  S
C983       C2024   1.409   1_545  A
C983        O988   1.372       .  S
C984        C985   1.405       .  A
C984       C2023   1.409       .  A
C985        C986   1.399       .  A
C985        H989   1.084       .  S
C986        O990   1.371       .  S
O988        H992   0.992       .  S
O990        H991   0.992       .  S
C993        C998   1.409       .  A
C993       C3074   1.405       .  A
C994        C995   1.403       .  A
C994       C3073   1.405       .  A
C994        H999   1.084   1_655  S
C995       C3076   1.410       .  A
C995       O1000   1.373   1_655  S
C996        C997   1.405       .  A
C996       C3075   1.410       .  A
C997        C998   1.401       .  A
C997       H1001   1.084       .  S
C998       O1002   1.372       .  S
O1000      H1004   0.991   1_455  S
O1002      H1003   0.992       .  S
C1005      C1010   1.408       .  A
C1005      C3086   1.399       .  A
C1006      C1007   1.385       .  A
C1006      C3085   1.399       .  A
C1006      H1011   1.084       .  S
C1007      C3088   1.406       .  A
C1007      O1012   1.373       .  S
C1008      C1009   1.405       .  A
C1008      C3087   1.406       .  A
C1009      C1010   1.402       .  A
C1009      H1013   1.083       .  S
C1010      O1014   1.371       .  S
O1012      H1016   0.992   1_655  S
O1014      H1015   0.992       .  S
C1017      C1018   1.398       .  A
C1017      C3102   1.407       .  A
C1018      C1019   1.387       .  A
C1018      H1023   1.084       .  S
C1019      C1020   1.408       .  A
C1019      O1024   1.373       .  S
C1020      C3101   1.405       .  A
C1020      C2102   1.478       .  S
C1021      C1022   1.402       .  A
C1021      C3100   1.405       .  A
C1021      H1025   1.083       .  S
C1022      C3097   1.407       .  A
C1022      O1026   1.371       .  S
O1024      H1028   0.992       .  S
O1026      H1027   0.992       .  S
C1029      C1030   1.406   1_565  A
C1029      C4154   1.409       .  A
C1030      C1031   1.400       .  A
C1030      H1035   1.084       .  S
C1031      C1032   1.407   1_545  A
C1031      O1036   1.372       .  S
C1032      C4153   1.403       .  A
C1033      C1034   1.401       .  A
C1033      C4152   1.403   1_455  A
C1033      H1037   1.084       .  S
C1034      C4149   1.409   1_455  A
C1034      O1038   1.372       .  S
O1036      H1040   0.992       .  S
O1038      H1039   0.992       .  S
N1041      C1046   1.353       .  A
N1041      C1045   1.353       .  A
N1041      H1073   1.040       .  S
N1042      C1049   1.351       .  A
N1042      C1050   1.351       .  A
N1043      C1048   1.352       .  A
N1043      C1047   1.347       .  A
N1043      H1074   1.039       .  S
N1044      C1051   1.345       .  A
N1044      C1052   1.349       .  A
C1045      C1053   1.385       .  A
C1046      C1062   1.417       .  A
C1046      C1054   1.390       .  A
C1047      C1055   1.386       .  A
C1047      C1064   1.406       .  A
C1048      C1056   1.387       .  A
C1049      C1061   1.407       .  A
C1049      C1057   1.385       .  A
C1050      C3144   1.412       .  A
C1050      C1058   1.388       .  A
C1051      C1059   1.386       .  A
C1051      C3142   1.406       .  A
C1052      C1060   1.386       .  A
C1052      C1063   1.412       .  A
C1053      C1054   1.376       .  A
C1053      H1065   1.083       .  S
C1054      H1066   1.082       .  S
C1055      C1056   1.377       .  A
C1055      H1067   1.083       .  S
C1056      H1068   1.082       .  S
C1057      C1058   1.372       .  A
C1057      H1069   1.083       .  S
C1058      H1070   1.082       .  S
C1059      C1060   1.374       .  A
C1059      H1071   1.083       .  S
C1060      H1072   1.082       .  S
C1061      C1380   1.475       .  S
C1062      C3131   1.406       .  A
C1062      C4140   1.478       .  S
C1063      C2072   1.487       .  S
C1064      C3130   1.412       .  A
C1064      C2048   1.476       .  S
N1075      C1080   1.351       .  A
N1075      C1079   1.353       .  A
N1075      H3187   1.042       .  S
N1076      C1083   1.352       .  A
N1076      C1084   1.350       .  A
N1077      C1082   1.353       .  A
N1077      C1081   1.346       .  A
N1077      H1108   1.041       .  S
N1078      C1085   1.344       .  A
N1078      C1086   1.350       .  A
C1079      C1087   1.384       .  A
C1079      C1095   1.406   1_455  A
C1080      C3176   1.415       .  A
C1080      C1088   1.391       .  A
C1081      C1089   1.386       .  A
C1081      C1098   1.405       .  A
C1082      C1097   1.415       .  A
C1082      C1090   1.387       .  A
C1083      C1095   1.406       .  A
C1083      C1091   1.384       .  A
C1084      C3178   1.413       .  A
C1084      C1092   1.389       .  A
C1085      C1093   1.385       .  A
C1085      C1096   1.404       .  A
C1086      C1094   1.387       .  A
C1086      C1097   1.413       .  A
C1087      C1088   1.376       .  A
C1087      H1099   1.083       .  S
C1088      H1100   1.082       .  S
C1089      C1090   1.379       .  A
C1089      H1101   1.082       .  S
C1090      H1102   1.082       .  S
C1091      C1092   1.373       .  A
C1091      H1103   1.083       .  S
C1092      H1104   1.082       .  S
C1093      C1094   1.376       .  A
C1093      H1105   1.082       .  S
C1094      H1106   1.082       .  S
C1095      C1395   1.477       .  S
C1096      C3160   1.415       .  A
C1096      C2057   1.473       .  S
C1097      C2036   1.495       .  S
C1098      C3164   1.413       .  A
C1098      C2045   1.474       .  S
H1107      N3155   1.042       .  S
N1109      C1114   1.354       .  A
N1109      C1113   1.352       .  A
N1109      H1141   1.041       .  S
N1110      C1117   1.352       .  A
N1110      C1118   1.353       .  A
N1111      C1116   1.352       .  A
N1111      C1115   1.346       .  A
N1111      H1142   1.041       .  S
N1112      C1119   1.343       .  A
N1112      C1120   1.348       .  A
C1113      C1121   1.385       .  A
C1113      C1129   1.410       .  A
C1114      C1130   1.418       .  A
C1114      C1122   1.390       .  A
C1115      C1123   1.386       .  A
C1115      C1132   1.405       .  A
C1116      C1124   1.387       .  A
C1117      C1125   1.385       .  A
C1118      C1132   1.415       .  A
C1118      C1126   1.388       .  A
C1119      C1127   1.387       .  A
C1119      C1130   1.404       .  A
C1120      C1128   1.386       .  A
C1120      C1131   1.410       .  A
C1121      C1122   1.378       .  A
C1121      H1133   1.083       .  S
C1122      H1134   1.082       .  S
C1123      C1124   1.378       .  A
C1123      H1135   1.082       .  S
C1124      H1136   1.082       .  S
C1125      C1126   1.374       .  A
C1125      H1137   1.083       .  S
C1126      H1138   1.081       .  S
C1127      C1128   1.375       .  A
C1127      H1139   1.083       .  S
C1128      H1140   1.082       .  S
C1129      C1408   1.477       .  S
C1130      C1997   1.480       .  S
C1131      C2024   1.488       .  S
C1132      C2009   1.480       .  S
N1143      C1148   1.354       .  A
N1143      C1147   1.351       .  A
N1143      H1175   1.042       .  S
N1144      C1151   1.346       .  A
N1144      C1152   1.351       .  A
N1145      C1150   1.348       .  A
N1145      C1149   1.353       .  A
N1145      H1176   1.040       .  S
N1146      C1153   1.352       .  A
N1146      C1154   1.350       .  A
C1147      C1155   1.392       .  A
C1147      C1163   1.418       .  A
C1148      C1164   1.405       .  A
C1148      C1156   1.382       .  A
C1149      C1157   1.387       .  A
C1149      C1166   1.414       .  A
C1150      C1165   1.409       .  A
C1150      C1158   1.387       .  A
C1151      C1163   1.409       .  A
C1151      C1159   1.387       .  A
C1152      C1166   1.413       .  A
C1152      C1160   1.386       .  A
C1153      C1161   1.383       .  A
C1153      C1164   1.404       .  A
C1154      C1162   1.390       .  A
C1154      C1165   1.414       .  A
C1155      C1156   1.374       .  A
C1155      H1167   1.081       .  S
C1156      H1168   1.083       .  S
C1157      C1158   1.378       .  A
C1157      H1169   1.082       .  S
C1158      H1170   1.082       .  S
C1159      C1160   1.377       .  A
C1159      H1171   1.082       .  S
C1160      H1172   1.082       .  S
C1161      C1162   1.373       .  A
C1161      H1173   1.083       .  S
C1162      H1174   1.081       .  S
C1163      C2000   1.477       .  S
C1164      C1423   1.479       .  S
C1165      C2012   1.477       .  S
C1166      C1985   1.491       .  S
N1177      C1182   1.357       .  A
N1177      C1181   1.347       .  A
N1177      H1209   1.038       .  S
N1178      C1185   1.348       .  A
N1178      C1186   1.353       .  A
N1179      C1184   1.349       .  A
N1179      C1183   1.354       .  A
N1179      H1210   1.041       .  S
N1180      C1187   1.350       .  A
N1180      C1188   1.343       .  A
C1181      C1189   1.385       .  A
C1181      C1197   1.409       .  A
C1182      C3278   1.423       .  A
C1182      C1190   1.390       .  A
C1183      C1191   1.384       .  A
C1183      C1200   1.408       .  A
C1184      C1199   1.413       .  A
C1184      C1192   1.391       .  A
C1185      C1197   1.412       .  A
C1185      C1193   1.389       .  A
C1186      C3280   1.408   1_455  A
C1186      C1194   1.383       .  A
C1187      C1195   1.389       .  A
C1187      C1198   1.416       .  A
C1188      C1196   1.385       .  A
C1188      C1199   1.404       .  A
C1189      C1190   1.375       .  A
C1189      H1201   1.083       .  S
C1190      H1202   1.080       .  S
C1191      C1192   1.373       .  A
C1191      H1203   1.083       .  S
C1192      H1204   1.083       .  S
C1193      C1194   1.373       .  A
C1193      H1205   1.082       .  S
C1194      H1206   1.082       .  S
C1195      C1196   1.372       .  A
C1195      H1207   1.080       .  S
C1196      H1208   1.083       .  S
C1197      C1976   1.471       .  S
C1198      C3262   1.423       .  A
C1199      C1961   1.465       .  S
C1200      C3266   1.408       .  A
C1200      C2069   1.492       .  S
N1211      C1216   1.346       .  A
N1211      C1215   1.357       .  A
N1211      H1243   1.037       .  S
N1212      C1219   1.352       .  A
N1212      C1220   1.345       .  A
N1213      C1218   1.357       .  A
N1213      C1217   1.352       .  A
N1213      H1244   1.039       .  S
N1214      C1221   1.350       .  A
N1214      C1222   1.353       .  A
C1215      C1223   1.391       .  A
C1215      C3311   1.424   1_455  A
C1216      C1232   1.406       .  A
C1216      C1224   1.383       .  A
C1217      C1225   1.390       .  A
C1217      C1234   1.416       .  A
C1218      C1233   1.411       .  A
C1218      C1226   1.383       .  A
C1219      C1231   1.420       .  A
C1219      C1227   1.389       .  A
C1220      C1234   1.407       .  A
C1220      C1228   1.386       .  A
C1221      C1229   1.390       .  A
C1221      C1232   1.413       .  A
C1222      C1230   1.383       .  A
C1222      C3313   1.407   1_455  A
C1223      C1224   1.376       .  A
C1223      H1235   1.079       .  S
C1224      H1236   1.083       .  S
C1225      C1226   1.371       .  A
C1225      H1237   1.082       .  S
C1226      H1238   1.082       .  S
C1227      C1228   1.370       .  A
C1227      H1239   1.080       .  S
C1228      H1240   1.083       .  S
C1229      C1230   1.371       .  A
C1229      H1241   1.081       .  S
C1230      H1242   1.082       .  S
C1231      C3295   1.424       .  A
C1231      C1338   1.495       .  S
C1232      C1949   1.471       .  S
C1233      C3302   1.407       .  A
C1233      C2033   1.494       .  S
C1234      C1937   1.469       .  S
N1245      C1250   1.347       .  A
N1245      C1249   1.357       .  A
N1245      H1277   1.037       .  S
N1246      C1253   1.351       .  A
N1246      C1254   1.344       .  A
N1247      C1252   1.354       .  A
N1247      C1251   1.350       .  A
N1247      H1278   1.040       .  S
N1248      C1255   1.349       .  A
N1248      C1256   1.352       .  A
C1249      C1257   1.392       .  A
C1249      C1265   1.424       .  A
C1250      C1266   1.408       .  A
C1250      C1258   1.384       .  A
C1251      C1259   1.391       .  A
C1251      C1268   1.415       .  A
C1252      C1267   1.407   1_545  A
C1252      C1260   1.383       .  A
C1253      C1265   1.417   1_545  A
C1253      C1261   1.390       .  A
C1254      C1268   1.405       .  A
C1254      C1262   1.385       .  A
C1255      C1263   1.389       .  A
C1255      C1266   1.412       .  A
C1256      C1264   1.382       .  A
C1256      C1267   1.405       .  A
C1257      C1258   1.374       .  A
C1257      H1269   1.080       .  S
C1258      H1270   1.083       .  S
C1259      C1260   1.373       .  A
C1259      H1271   1.082       .  S
C1260      H1272   1.083       .  S
C1261      C1262   1.370       .  A
C1261      H1273   1.080       .  S
C1262      H1274   1.083       .  S
C1263      C1264   1.370       .  A
C1263      H1275   1.082       .  S
C1264      H1276   1.082       .  S
C1265      C1354   1.490       .  S
C1266      C1973   1.471       .  S
C1267      C2021   1.483       .  S
C1268      C1964   1.468       .  S
N1279      C1284   1.355       .  A
N1279      C1283   1.347       .  A
N1279      H1311   1.037       .  S
N1280      C1287   1.349       .  A
N1280      C1288   1.352       .  A
N1281      C1286   1.351       .  A
N1281      C1285   1.356       .  A
N1281      H1312   1.040       .  S
N1282      C1289   1.352       .  A
N1282      C1290   1.346       .  A
C1283      C1291   1.385       .  A
C1283      C1299   1.407       .  A
C1284      C1300   1.418       .  A
C1284      C1292   1.391       .  A
C1285      C1293   1.384       .  A
C1285      C1302   1.412       .  A
C1286      C1301   1.417       .  A
C1286      C1294   1.391       .  A
C1287      C1299   1.412       .  A
C1287      C1295   1.388       .  A
C1288      C1302   1.407       .  A
C1288      C1296   1.384       .  A
C1289      C1297   1.388       .  A
C1289      C1300   1.417       .  A
C1290      C1298   1.387       .  A
C1290      C1301   1.410       .  A
C1291      C1292   1.372       .  A
C1291      H1303   1.083       .  S
C1292      H1304   1.080       .  S
C1293      C1294   1.373       .  A
C1293      H1305   1.082       .  S
C1294      H1306   1.082       .  S
C1295      C1296   1.372       .  A
C1295      H1307   1.082       .  S
C1296      H1308   1.082       .  S
C1297      C1298   1.373       .  A
C1297      H1309   1.081       .  S
C1298      H1310   1.083       .  S
C1299      C1952   1.469       .  S
C1300      C1365   1.486       .  S
C1301      C1940   1.470       .  S
C1302      C1988   1.488       .  S
O1313     Cu1321   2.009       .  S
O1314     Cu1321   2.012       .  S
O1315     Cu1321   2.095       .  S
O1316     Cu3401   2.074       .  S
O1317     Cu3402   2.092       .  S
O1317      C1326   1.288       .  A
O1318     Cu1322   2.081       .  S
O1318      C1325   1.287       .  A
O1319     Cu1322   2.013       .  S
O1319      C1324   1.277       .  A
O1320     Cu1322   2.014       .  S
O1320      C1323   1.277       .  A
Cu1321     O3396   2.074       .  S
Cu1322     O3397   2.092       .  S
C1323      C1581   1.493       .  S
C1325      C1913   1.542       .  S
C1326      C1925   1.540       .  S
O1327     Cu1335   2.026       .  S
O1327      C1337   1.279       .  A
O1328     Cu1335   2.023       .  S
O1328      C1338   1.279       .  A
O1329     Cu1335   2.088       .  S
O1329      C1339   1.287       .  A
O1330     Cu3415   2.090   1_455  S
O1330      C1340   1.288       .  A
O1331     Cu3416   2.082   1_455  S
O1331      C1340   1.287       .  A
O1332     Cu1336   2.083       .  S
O1332      C1339   1.287       .  A
O1333     Cu1336   2.004       .  S
O1333      C1338   1.277       .  A
O1334     Cu1336   2.000       .  S
O1334      C1337   1.276       .  A
Cu1335     O3410   2.090       .  S
Cu1335    Cu1336   2.355       .  S
Cu1336     O3411   2.082       .  S
C1337      C1615   1.492       .  S
C1339      C1892   1.541       .  S
C1340      C1901   1.542       .  S
O1341     Cu1349   2.094       .  S
O1341      C1351   1.288       .  A
O1342     Cu1349   2.079       .  S
O1342      C1352   1.287       .  A
O1343     Cu1349   1.999       .  S
O1343      C1353   1.275       .  A
O1344     Cu1349   2.000       .  S
O1344      C1354   1.275       .  A
O1345     Cu1350   2.014       .  S
O1346     Cu1350   2.011       .  S
O1347     Cu1350   2.092       .  S
O1348     Cu1350   2.077       .  S
C1351      C1928   1.541       .  S
C1352      C1916   1.542       .  S
C1353      C1649   1.485       .  S
O1355     Cu1363   2.014       .  S
O1355      C1365   1.279       .  A
O1356     Cu1363   2.026       .  S
O1356      C1366   1.279       .  A
O1357     Cu1363   2.083       .  S
O1357      C1367   1.287       .  A
O1358     Cu1363   2.082       .  S
O1358      C1368   1.287       .  A
O1359     Cu1364   2.091       .  S
O1359      C1368   1.288       .  A
O1360     Cu1364   2.086       .  S
O1360      C1367   1.287       .  A
O1361     Cu1364   2.005       .  S
O1361      C1366   1.277       .  A
O1362     Cu1364   2.002       .  S
O1362      C1365   1.276       .  A
Cu1363    Cu1364   2.357       .  S
C1366      C1683   1.494       .  S
C1367      C1889   1.541       .  S
C1368      C1904   1.542       .  S
O1369     Cu1377   1.996   1_556  S
O1369      C1379   1.275   1_455  A
O1370     Cu1377   2.003       .  S
O1370      C1380   1.276   1_455  A
O1371     Cu1377   2.066       .  S
O1371      C1381   1.285   1_455  A
O1372      C1382   1.285   1_455  A
O1373     Cu2418   2.059       .  S
O1373      C1382   1.284       .  A
O1374     Cu3458   2.058       .  S
O1374      C1381   1.284       .  A
O1375     Cu3458   2.010       .  S
O1375      C1380   1.278       .  A
O1376     Cu3458   2.008   1_556  S
O1376      C1379   1.277       .  A
Cu1377    Cu3458   2.366   1_455  S
Cu1378     O2413   2.059   1_565  S
Cu1378     O3454   2.057       .  S
Cu1378     O3455   2.010       .  S
Cu1378     O3456   2.008   1_554  S
Cu1378    Cu3457   2.366       .  S
C1379      C1445   1.473   1_655  S
C1381      C1865   1.524       .  S
C1382      C1877   1.524       .  S
O1383     Cu1391   2.058       .  S
O1383      C1393   1.284   1_455  A
O1384     Cu1391   2.056       .  S
O1384      C1394   1.283   1_455  A
O1385     Cu1391   2.017       .  S
O1385      C1395   1.278   1_455  A
O1386     Cu1391   2.013   1_556  S
O1386      C1396   1.278   1_455  A
O1387     Cu3472   1.997   1_556  S
O1387      C1396   1.275       .  A
O1388     Cu3472   2.002       .  S
O1388      C1395   1.276       .  A
O1389     Cu3472   2.060       .  S
O1389      C1394   1.285       .  A
O1390     Cu3472   2.068       .  S
O1390      C1393   1.285       .  A
Cu1391    Cu3472   2.365   1_455  S
Cu1392     O3467   1.997   1_554  S
Cu1392     O3468   2.002       .  S
Cu1392     O3469   2.060       .  S
Cu1392     O3470   2.068       .  S
Cu1392    Cu3471   2.365       .  S
C1393      C1880   1.525       .  S
C1394      C1868   1.522       .  S
C1396      C1479   1.473       .  S
O1397     Cu1405   2.023   1_556  S
O1397      C1407   1.279       .  A
O1398     Cu1405   2.016       .  S
O1398      C1408   1.278       .  A
O1399      C1409   1.283       .  A
O1400     Cu1405   2.057       .  S
O1400      C1410   1.283       .  A
O1401     Cu1406   2.066       .  S
O1401      C1410   1.285       .  A
O1402      C1409   1.285       .  A
O1403     Cu1406   2.004       .  S
O1403      C1408   1.276       .  A
O1404     Cu1406   2.006   1_556  S
O1404      C1407   1.276       .  A
Cu1405    Cu1406   2.365       .  S
C1407      C1513   1.482       .  S
C1409      C1853   1.523       .  S
C1410      C1841   1.523       .  S
O1411     Cu1419   2.059       .  S
O1411      C1421   1.284       .  A
O1412     Cu1419   2.062       .  S
O1412      C1422   1.285       .  A
O1413     Cu1419   2.009       .  S
O1413      C1423   1.276       .  A
O1414     Cu1419   2.007   1_556  S
O1414      C1424   1.276       .  A
O1415     Cu1420   2.022   1_556  S
O1415      C1424   1.279       .  A
O1416     Cu1420   2.020       .  S
O1416      C1423   1.278       .  A
O1417     Cu1420   2.064       .  S
O1417      C1422   1.285       .  A
O1418     Cu1420   2.061       .  S
O1418      C1421   1.284       .  A
Cu1419    Cu1420   2.365       .  S
C1421      C1856   1.523       .  S
C1422      C1844   1.524       .  S
C1424      C1548   1.481       .  S
N1425      C1430   1.353       .  A
N1425      C1429   1.353       .  A
N1425      H1457   1.040       .  S
N1426      C1433   1.351       .  A
N1426      C1434   1.351       .  A
N1427      C1432   1.352       .  A
N1427      C1431   1.347       .  A
N1427      H1458   1.039       .  S
N1428      C1435   1.345       .  A
N1428      C1436   1.349       .  A
C1429      C1437   1.385       .  A
C1429      C1445   1.409       .  A
C1430      C3526   1.417       .  A
C1430      C1438   1.390       .  A
C1431      C1439   1.384       .  A
C1431      C1448   1.402       .  A
C1432      C1440   1.389       .  A
C1433      C1441   1.386       .  A
C1434      C3528   1.410       .  A
C1434      C1442   1.387       .  A
C1435      C1443   1.386       .  A
C1435      C1446   1.406       .  A
C1436      C1444   1.386       .  A
C1436      C1447   1.412       .  A
C1437      C1438   1.373       .  A
C1437      H1449   1.083       .  S
C1438      H1450   1.082       .  S
C1439      C1440   1.375       .  A
C1439      H1451   1.082       .  S
C1440      H1452   1.082       .  S
C1441      C1442   1.372       .  A
C1441      H1453   1.082       .  S
C1442      H1454   1.082       .  S
C1443      C1444   1.375       .  A
C1443      H1455   1.083       .  S
C1444      H1456   1.082       .  S
C1446      C3510   1.417       .  A
C1446      C1805   1.476       .  S
C1447      C1829   1.486       .  S
C1448      C3514   1.410       .  A
C1448      C1817   1.471       .  S
N1459      C1464   1.352       .  A
N1459      C1463   1.352       .  A
N1459      H1491   1.040       .  S
N1460      C1467   1.351       .  A
N1460      C1468   1.351       .  A
N1461      C1466   1.353       .  A
N1461      C1465   1.349       .  A
N1461      H1492   1.038       .  S
N1462      C1469   1.345       .  A
N1462      C1470   1.348       .  A
C1463      C1471   1.385       .  A
C1463      C1479   1.407       .  A
C1464      C3560   1.414       .  A
C1464      C1472   1.390       .  A
C1465      C1473   1.386       .  A
C1465      C1482   1.408       .  A
C1466      C1481   1.416       .  A
C1466      C1474   1.388       .  A
C1467      C1479   1.408   1_455  A
C1467      C1475   1.385       .  A
C1468      C3562   1.413       .  A
C1468      C1476   1.388       .  A
C1469      C1477   1.385       .  A
C1469      C1480   1.402       .  A
C1470      C1478   1.387       .  A
C1470      C1481   1.410       .  A
C1471      C1472   1.373       .  A
C1471      H1483   1.083       .  S
C1472      H1484   1.083       .  S
C1473      C1474   1.376       .  A
C1473      H1485   1.083       .  S
C1474      H1486   1.082       .  S
C1475      C1476   1.373       .  A
C1475      H1487   1.083       .  S
C1476      H1488   1.082       .  S
C1477      C1478   1.375       .  A
C1477      H1489   1.082       .  S
C1478      H1490   1.082       .  S
C1480      C3544   1.414       .  A
C1480      C1820   1.472       .  S
C1481      C1793   1.486       .  S
C1482      C3548   1.413       .  A
C1482      C1808   1.478       .  S
N1493      C1498   1.354       .  A
N1493      C1497   1.354       .  A
N1493      H1525   1.040       .  S
N1494      C1501   1.354       .  A
N1494      C1502   1.354       .  A
N1495      C1500   1.354       .  A
N1495      C1499   1.348       .  A
N1495      H1526   1.038       .  S
N1496      C1503   1.347       .  A
N1496      C1504   1.350       .  A
C1497      C1505   1.385       .  A
C1497      C1513   1.412       .  A
C1498      C1514   1.418       .  A
C1498      C1506   1.390       .  A
C1499      C1507   1.385       .  A
C1499      C1516   1.409       .  A
C1500      C1508   1.389       .  A
C1501      C1509   1.384       .  A
C1502      C1516   1.417       .  A
C1502      C1510   1.388       .  A
C1503      C1511   1.387       .  A
C1503      C1514   1.408       .  A
C1504      C1512   1.387       .  A
C1504      C1515   1.414       .  A
C1505      C1506   1.373       .  A
C1505      H1517   1.083       .  S
C1506      H1518   1.082       .  S
C1507      C1508   1.379       .  A
C1507      H1519   1.082       .  S
C1508      H1520   1.082       .  S
C1509      C1510   1.371       .  A
C1509      H1521   1.083       .  S
C1510      H1522   1.081       .  S
C1511      C1512   1.374       .  A
C1511      H1523   1.083       .  S
C1512      H1524   1.082       .  S
C1514      C1757   1.480       .  S
C1515      C1781   1.491       .  S
C1516      C1769   1.485       .  S
N1527      C1532   1.354       .  A
N1527      C1531   1.355       .  A
N1527      H1559   1.041       .  S
N1528      C1535   1.345       .  A
N1528      C1536   1.350       .  A
N1529      C1534   1.347       .  A
N1529      C1533   1.353       .  A
N1529      H1560   1.040       .  S
N1530      C1537   1.353       .  A
N1530      C1538   1.353       .  A
C1531      C1539   1.390       .  A
C1531      C1547   1.420       .  A
C1532      C1548   1.413       .  A
C1532      C1540   1.385       .  A
C1533      C1541   1.386       .  A
C1533      C1550   1.412       .  A
C1534      C1549   1.407       .  A
C1534      C1542   1.387       .  A
C1535      C1547   1.407       .  A
C1535      C1543   1.386       .  A
C1536      C1550   1.411       .  A
C1536      C1544   1.385       .  A
C1537      C1545   1.386       .  A
C1537      C1548   1.411       .  A
C1538      C1546   1.388       .  A
C1538      C1549   1.415       .  A
C1539      C1540   1.378       .  A
C1539      H1551   1.082       .  S
C1540      H1552   1.083       .  S
C1541      C1542   1.378       .  A
C1541      H1553   1.082       .  S
C1542      H1554   1.083       .  S
C1543      C1544   1.377       .  A
C1543      H1555   1.082       .  S
C1544      H1556   1.082       .  S
C1545      C1546   1.373       .  A
C1545      H1557   1.083       .  S
C1546      H1558   1.082       .  S
C1547      C1772   1.482       .  S
C1549      C1760   1.478       .  S
C1550      C1745   1.488       .  S
N1561      C1566   1.347       .  A
N1561      C1565   1.357       .  A
N1561      H1593   1.038       .  S
N1562      C1569   1.351       .  A
N1562      C1570   1.345       .  A
N1563      C1568   1.353       .  A
N1563      C1567   1.350       .  A
N1563      H1594   1.040       .  S
N1564      C1571   1.350       .  A
N1564      C1572   1.353       .  A
C1565      C1573   1.392       .  A
C1565      C3661   1.425       .  A
C1566      C1582   1.408       .  A
C1566      C1574   1.383       .  A
C1567      C1575   1.390       .  A
C1567      C1584   1.412       .  A
C1568      C1583   1.407   1_545  A
C1568      C1576   1.384       .  A
C1569      C1581   1.419   1_545  A
C1569      C1577   1.390       .  A
C1570      C1584   1.404       .  A
C1570      C1578   1.384       .  A
C1571      C1579   1.389       .  A
C1571      C1582   1.414       .  A
C1572      C1580   1.383       .  A
C1572      C3663   1.407       .  A
C1573      C1574   1.374       .  A
C1573      H1585   1.079       .  S
C1574      H1586   1.083       .  S
C1575      C1576   1.374       .  A
C1575      H1587   1.082       .  S
C1576      H1588   1.082       .  S
C1577      C1578   1.373       .  A
C1577      H1589   1.080       .  S
C1578      H1590   1.083       .  S
C1579      C1580   1.372       .  A
C1579      H1591   1.081       .  S
C1580      H1592   1.082       .  S
C1581      C3645   1.424       .  A
C1582      C1733   1.474       .  S
C1583      C3652   1.407       .  A
C1583      C1832   1.482       .  S
C1584      C1721   1.470       .  S
N1595      C1600   1.347       .  A
N1595      C1599   1.356       .  A
N1595      H1627   1.038       .  S
N1596      C1603   1.352       .  A
N1596      C1604   1.345       .  A
N1597      C1602   1.355       .  A
N1597      C1601   1.350       .  A
N1597      H1628   1.042       .  S
N1598      C1605   1.348       .  A
N1598      C1606   1.350       .  A
C1599      C1607   1.392       .  A
C1599      C3695   1.424   1_455  A
C1600      C1616   1.405       .  A
C1600      C1608   1.382       .  A
C1601      C1609   1.392       .  A
C1601      C1618   1.417       .  A
C1602      C1617   1.409       .  A
C1602      C1610   1.383       .  A
C1603      C1615   1.418       .  A
C1603      C1611   1.388       .  A
C1604      C1618   1.410       .  A
C1604      C1612   1.387       .  A
C1605      C1613   1.388       .  A
C1605      C1616   1.408       .  A
C1606      C1614   1.384       .  A
C1606      C3697   1.405   1_455  A
C1607      C1608   1.373       .  A
C1607      H1619   1.080       .  S
C1608      H1620   1.083       .  S
C1609      C1610   1.373       .  A
C1609      H1621   1.081       .  S
C1610      H1622   1.082       .  S
C1611      C1612   1.375       .  A
C1611      H1623   1.080       .  S
C1612      H1624   1.083       .  S
C1613      C1614   1.370       .  A
C1613      H1625   1.082       .  S
C1614      H1626   1.082       .  S
C1615      C3679   1.424       .  A
C1616      C1709   1.469       .  S
C1617      C3686   1.405       .  A
C1617      C1796   1.491       .  S
C1618      C1697   1.473       .  S
N1629      C1634   1.347       .  A
N1629      C1633   1.354       .  A
N1629      H1661   1.040       .  S
N1630      C1637   1.351       .  A
N1630      C1638   1.345   1_565  A
N1631      C1636   1.353       .  A
N1631      C1635   1.350   1_565  A
N1631      H1662   1.041   1_565  S
N1632      C1639   1.350       .  A
N1632      C1640   1.353       .  A
C1633      C1641   1.391       .  A
C1633      C1649   1.419       .  A
C1634      C1650   1.406       .  A
C1634      C1642   1.384       .  A
C1635      C1643   1.390   1_545  A
C1635      C1652   1.413       .  A
C1636      C1651   1.410       .  A
C1636      C1644   1.385       .  A
C1637      C1649   1.415       .  A
C1637      C1645   1.389   1_565  A
C1638      C1652   1.407       .  A
C1638      C1646   1.386       .  A
C1639      C1647   1.388       .  A
C1639      C1650   1.412       .  A
C1640      C1648   1.383       .  A
C1640      C1651   1.409       .  A
C1641      C1642   1.375       .  A
C1641      H1653   1.079       .  S
C1642      H1654   1.083       .  S
C1643      C1644   1.374       .  A
C1643      H1655   1.082   1_565  S
C1644      H1656   1.082       .  S
C1645      C1646   1.372       .  A
C1645      H1657   1.081       .  S
C1646      H1658   1.083       .  S
C1647      C1648   1.372       .  A
C1647      H1659   1.082       .  S
C1648      H1660   1.082       .  S
C1650      C1736   1.474       .  S
C1651      C1784   1.493       .  S
C1652      C1724   1.468       .  S
N1663      C1668   1.346       .  A
N1663      C1667   1.358       .  A
N1663      H1695   1.036       .  S
N1664      C1671   1.352       .  A
N1664      C1672   1.344       .  A
N1665      C1670   1.357       .  A
N1665      C1669   1.352       .  A
N1665      H1696   1.041       .  S
N1666      C1673   1.349       .  A
N1666      C1674   1.353       .  A
C1667      C1675   1.391       .  A
C1667      C1683   1.424       .  A
C1668      C1684   1.408       .  A
C1668      C1676   1.384       .  A
C1669      C1677   1.392       .  A
C1669      C1686   1.420       .  A
C1670      C1685   1.410       .  A
C1670      C1678   1.382       .  A
C1671      C1683   1.416       .  A
C1671      C1679   1.387       .  A
C1672      C1686   1.410       .  A
C1672      C1680   1.387       .  A
C1673      C1681   1.389       .  A
C1673      C1684   1.412       .  A
C1674      C1682   1.384       .  A
C1674      C1685   1.407       .  A
C1675      C1676   1.373       .  A
C1675      H1687   1.080       .  S
C1676      H1688   1.083       .  S
C1677      C1678   1.374       .  A
C1677      H1689   1.081       .  S
C1678      H1690   1.082       .  S
C1679      C1680   1.374       .  A
C1679      H1691   1.080       .  S
C1680      H1692   1.083       .  S
C1681      C1682   1.372       .  A
C1681      H1693   1.082       .  S
C1682      H1694   1.082       .  S
C1684      C1712   1.469       .  S
C1685      C1748   1.489       .  S
C1686      C1700   1.475       .  S
C1697      C1698   1.404       .  A
C1697      C1702   1.404       .  A
C1698      C1699   1.401       .  A
C1698      H1703   1.083       .  S
C1699      C1700   1.406       .  A
C1699      O1704   1.372       .  S
C1700      C1701   1.400       .  A
C1701      C1702   1.385       .  A
C1701      H1705   1.084       .  S
C1702      O1706   1.373       .  S
O1704      H1708   0.992       .  S
O1706      H1707   0.992       .  S
C1709      C1710   1.403       .  A
C1709      C1714   1.405       .  A
C1710      C1711   1.400       .  A
C1710      H1715   1.083       .  S
C1711      C1712   1.406       .  A
C1711      O1716   1.371       .  S
C1712      C1713   1.398       .  A
C1713      C1714   1.383       .  A
C1713      H1717   1.084       .  S
C1714      O1718   1.373       .  S
O1716      H1720   0.992       .  S
O1718      H1719   0.992       .  S
C1721      C1726   1.406   1_545  A
C1722      C1723   1.400       .  A
C1722      H1727   1.083       .  S
C1723      O1728   1.371       .  S
C1724      C1725   1.396   1_545  A
C1725      C1726   1.385       .  A
C1725      H1729   1.084       .  S
C1726      O1730   1.373       .  S
O1728      H1732   0.992       .  S
O1730      H1731   0.992       .  S
C1733      C1738   1.407       .  A
C1734      C1735   1.386       .  A
C1734      H1739   1.084       .  S
C1735      O1740   1.373       .  S
C1736      C1737   1.404       .  A
C1737      C1738   1.401       .  A
C1737      H1741   1.083       .  S
C1738      O1742   1.371       .  S
O1740      H1744   0.992       .  S
O1742      H1743   0.992       .  S
C1745      C1746   1.403       .  A
C1745      C1750   1.408       .  A
C1746      C1747   1.402       .  A
C1746      H1751   1.084       .  S
C1747      C1748   1.408       .  A
C1747      O1752   1.371       .  S
C1748      C1749   1.404       .  A
C1749      C1750   1.403       .  A
C1749      H1753   1.083       .  S
C1750      O1754   1.371       .  S
O1752      H1756   0.991       .  S
O1754      H1755   0.991       .  S
C1757      C1758   1.407       .  A
C1757      C1762   1.405       .  A
C1758      C1759   1.405       .  A
C1758      H1763   1.083       .  S
C1759      C1760   1.408       .  A
C1759      O1764   1.371       .  S
C1760      C1761   1.399       .  A
C1761      C1762   1.384       .  A
C1761      H1765   1.084       .  S
C1762      O1766   1.373       .  S
O1764      H1768   0.992       .  S
O1766      H1767   0.992       .  S
C1769      C1770   1.406       .  A
C1769      C1774   1.408       .  A
C1770      C1771   1.405       .  A
C1770      H1775   1.083       .  S
C1771      C1772   1.407       .  A
C1771      O1776   1.371       .  S
C1772      C1773   1.400       .  A
C1773      C1774   1.391       .  A
C1773      H1777   1.084       .  S
C1774      O1778   1.373       .  S
O1776      H1780   0.991       .  S
O1778      H1779   0.992       .  S
C1781      C1782   1.405       .  A
C1782      C1783   1.402       .  A
C1782      H1787   1.084       .  S
C1783      C1784   1.409       .  A
C1783      O1788   1.373       .  S
C1785      C1786   1.401       .  A
C1785      H1789   1.084       .  S
C1786      O1790   1.372       .  S
O1788      H1792   0.992       .  S
O1790      H1791   0.991       .  S
C1793      C3874   1.403       .  A
C1793      C1798   1.407       .  A
C1794      C3873   1.403       .  A
C1794      C1795   1.401       .  A
C1794      H1799   1.084       .  S
C1795      C3876   1.411       .  A
C1795      O1800   1.373       .  S
C1796      C3875   1.411       .  A
C1796      C1797   1.404       .  A
C1797      C1798   1.397       .  A
C1797      H1801   1.084       .  S
C1798      O1802   1.372       .  S
O1800      H1804   0.992   1_655  S
O1802      H1803   0.992       .  S
C1805      C1806   1.400       .  A
C1805      C3890   1.406       .  A
C1806      C1807   1.386       .  A
C1806      H1811   1.084       .  S
C1807      C1808   1.406       .  A
C1807      O1812   1.373       .  S
C1808      C3889   1.406       .  A
C1809      C3888   1.406       .  A
C1809      C1810   1.404       .  A
C1809      H1813   1.083       .  S
C1810      C3885   1.406       .  A
C1810      O1814   1.371       .  S
O1812      H1816   0.992       .  S
O1814      H1815   0.991       .  S
C1817      C3898   1.398       .  A
C1817      C1822   1.406       .  A
C1818      C3897   1.398       .  A
C1818      C1819   1.386       .  A
C1818      H1823   1.084   1_655  S
C1819      C3900   1.405       .  A
C1819      O1824   1.373   1_655  S
C1820      C3899   1.405       .  A
C1820      C1821   1.403       .  A
C1821      C1822   1.403       .  A
C1821      H1825   1.083       .  S
C1822      O1826   1.370       .  S
O1824      H1828   0.992       .  S
O1826      H1827   0.992       .  S
C1829      C1834   1.408       .  A
C1830      C3911   1.400       .  A
C1830      H3915   1.084       .  S
C1831      C3910   1.400       .  A
C1831      C2872   1.406       .  A
C1831      O1836   1.371       .  S
C1832      C2871   1.406   1_565  A
C1832      C1833   1.402       .  A
C1833      C1834   1.400       .  A
C1833      H1837   1.083       .  S
C1834      O1838   1.372       .  S
H1835      C3910   1.084       .  S
O1836      H1840   0.992       .  S
O1838      H1839   0.991       .  S
C1841      C1842   1.411       .  A
C1841      C1846   1.419       .  A
C1842      C1843   1.417       .  A
C1842      H1847   1.083       .  S
C1843      C1844   1.418       .  A
C1843      O1848   1.371       .  S
C1844      C1845   1.412       .  A
C1845      C1846   1.418       .  A
C1845      H1849   1.083       .  S
C1846      O1850   1.371       .  S
O1848      H1852   0.992       .  S
O1850      H1851   0.992       .  S
C1853      C1854   1.411       .  A
C1853      C1858   1.419       .  A
C1854      C1855   1.416       .  A
C1854      H1859   1.083       .  S
C1855      C1856   1.418       .  A
C1855      O1860   1.371       .  S
C1856      C1857   1.412       .  A
C1857      C1858   1.417       .  A
C1857      H1861   1.083       .  S
C1858      O1862   1.371       .  S
O1860      H1864   0.992       .  S
O1862      H1863   0.992       .  S
C1865      C3946   1.411       .  A
C1865      C1870   1.419   1_655  A
C1866      C3945   1.411       .  A
C1866      C1867   1.414       .  A
C1866      H1871   1.083       .  S
C1867      C3948   1.417       .  A
C1867      O1872   1.371       .  S
C1868      C3947   1.417       .  A
C1868      C1869   1.413   1_655  A
C1869      C1870   1.418       .  A
C1869      H1873   1.083       .  S
C1870      O1874   1.371       .  S
O1872      H1876   0.992       .  S
O1874      H1875   0.992       .  S
C1877      C1878   1.413       .  A
C1877      C1882   1.417   1_655  A
C1878      C1879   1.419       .  A
C1878      H1883   1.083       .  S
C1879      C1880   1.419       .  A
C1879      O1884   1.371       .  S
C1880      C1881   1.412   1_655  A
C1881      C1882   1.416       .  A
C1881      H1885   1.083       .  S
C1882      O1886   1.371       .  S
O1884      H1888   0.992       .  S
O1886      H1887   0.992       .  S
C1889      C1890   1.416       .  A
C1889      C1894   1.421       .  A
C1890      C1891   1.425       .  A
C1890      H1895   1.083       .  S
C1891      C1892   1.421       .  A
C1891      O1896   1.371       .  S
C1892      C1893   1.415       .  A
C1893      C1894   1.424       .  A
C1893      H1897   1.083       .  S
C1894      O1898   1.371       .  S
O1896      H1900   0.991       .  S
O1898      H1899   0.992       .  S
C1901      C1902   1.415       .  A
C1901      C1906   1.422       .  A
C1902      C1903   1.425       .  A
C1902      H1907   1.083       .  S
C1903      C1904   1.422       .  A
C1903      O1908   1.371       .  S
C1904      C1905   1.415       .  A
C1905      C1906   1.425       .  A
C1905      H1909   1.083       .  S
C1906      O1910   1.371       .  S
O1908      H1912   0.992       .  S
O1910      H1911   0.992       .  S
C1913      C1914   1.414       .  A
C1914      C1915   1.423       .  A
C1914      H1919   1.083       .  S
C1915      C1916   1.421       .  A
C1915      O1920   1.371       .  S
C1917      C1918   1.428       .  A
C1917      H1921   1.083       .  S
C1918      O1922   1.371       .  S
O1920      H1924   0.992       .  S
O1922      H1923   0.992       .  S
C1925      C1926   1.416       .  A
C1926      C1927   1.426       .  A
C1926      H1931   1.083       .  S
C1927      C1928   1.422       .  A
C1927      O1932   1.371       .  S
C1929      C1930   1.422       .  A
C1929      H1933   1.083       .  S
C1930      O1934   1.371       .  S
O1932      H1936   0.992       .  S
O1934      H1935   0.992       .  S
C1937      C1938   1.398       .  A
C1937      C1942   1.405       .  A
C1938      C1939   1.383       .  A
C1938      H1943   1.084       .  S
C1939      C1940   1.403       .  A
C1939      O1944   1.372       .  S
C1940      C1941   1.404       .  A
C1941      C1942   1.400       .  A
C1941      H1945   1.083       .  S
C1942      O1946   1.371       .  S
O1944      H1948   0.992       .  S
O1946      H1947   0.992       .  S
C1949      C1950   1.403       .  A
C1949      C1954   1.407       .  A
C1950      C1951   1.400       .  A
C1950      H1955   1.083       .  S
C1951      C1952   1.405       .  A
C1951      O1956   1.371       .  S
C1952      C1953   1.396       .  A
C1953      C1954   1.385       .  A
C1953      H1957   1.084       .  S
C1954      O1958   1.373       .  S
O1956      H1960   0.992       .  S
O1958      H1959   0.992       .  S
C1961      C1962   1.401       .  A
C1962      C1963   1.399       .  A
C1962      H1967   1.083       .  S
C1963      O1968   1.371       .  S
C1964      C1965   1.399       .  A
C1965      C1966   1.384       .  A
C1965      H1969   1.084   1_545  S
C1966      O1970   1.373   1_545  S
O1968      H1972   0.992       .  S
O1970      H1971   0.992       .  S
C1973      C1978   1.406       .  A
C1974      C1975   1.383       .  A
C1974      H1979   1.084       .  S
C1975      C1976   1.405       .  A
C1975      O1980   1.373       .  S
C1977      C1978   1.402       .  A
C1977      H1981   1.083       .  S
C1978      O1982   1.372       .  S
O1980      H1984   0.992       .  S
O1982      H1983   0.991       .  S
C1985      C1986   1.403       .  A
C1985      C1990   1.410       .  A
C1986      C1987   1.401       .  A
C1986      H1991   1.083       .  S
C1987      C1988   1.407       .  A
C1987      O1992   1.371       .  S
C1988      C1989   1.403       .  A
C1989      C1990   1.403       .  A
C1989      H1993   1.083       .  S
C1990      O1994   1.371       .  S
O1992      H1996   0.992       .  S
O1994      H1995   0.991       .  S
C1997      C1998   1.404       .  A
C1997      C2002   1.408       .  A
C1998      C1999   1.403       .  A
C1998      H2003   1.083       .  S
C1999      C2000   1.409       .  A
C1999      O2004   1.372       .  S
C2000      C2001   1.398       .  A
C2001      C2002   1.387       .  A
C2001      H2005   1.084       .  S
C2002      O2006   1.373       .  S
O2004      H2008   0.992       .  S
O2006      H2007   0.992       .  S
C2009      C2010   1.405       .  A
C2009      C2014   1.408       .  A
C2010      C2011   1.404       .  A
C2010      H2015   1.083       .  S
C2011      C2012   1.408       .  A
C2011      O2016   1.372       .  S
C2012      C2013   1.398       .  A
C2013      C2014   1.386       .  A
C2013      H2017   1.084       .  S
C2014      O2018   1.373       .  S
O2016      H2020   0.992       .  S
O2018      H2019   0.992       .  S
C2021      C2026   1.406       .  A
C2022      C2023   1.401       .  A
C2022      H2027   1.083       .  S
C2023      O2028   1.372       .  S
C2024      C2025   1.405       .  A
C2025      C2026   1.399       .  A
C2025      H2029   1.084       .  S
C2026      O2030   1.371       .  S
O2028      H2032   0.992       .  S
O2030      H2031   0.992       .  S
C2033      C4114   1.405       .  A
C2033      C2038   1.409       .  A
C2034      C4113   1.405       .  A
C2034      C2035   1.403       .  A
C2034      H2039   1.084   1_655  S
C2035      C4116   1.410       .  A
C2035      O2040   1.373   1_655  S
C2036      C4115   1.410       .  A
C2036      C2037   1.405       .  A
C2037      C2038   1.401       .  A
C2037      H2041   1.084       .  S
C2038      O2042   1.372       .  S
O2040      H2044   0.991   1_455  S
O2042      H2043   0.992       .  S
C2045      C4126   1.399       .  A
C2045      C2050   1.408       .  A
C2046      C4125   1.399       .  A
C2046      C2047   1.385       .  A
C2046      H2051   1.084       .  S
C2047      C4128   1.406       .  A
C2047      O2052   1.373       .  S
C2048      C4127   1.406       .  A
C2048      C2049   1.405       .  A
C2049      C2050   1.402       .  A
C2049      H2053   1.083       .  S
C2050      O2054   1.371       .  S
O2052      H2056   0.992   1_655  S
O2054      H2055   0.992       .  S
C2057      C2058   1.398       .  A
C2057      C4142   1.407       .  A
C2058      C2059   1.387       .  A
C2058      H2063   1.084       .  S
C2059      C2060   1.407       .  A
C2059      O2064   1.373       .  S
C2060      C4141   1.405       .  A
C2060      C3142   1.478       .  S
C2061      C4140   1.405       .  A
C2061      C2062   1.402       .  A
C2061      H2065   1.083       .  S
C2062      C4137   1.407       .  A
C2062      O2066   1.371       .  S
O2064      H2068   0.992       .  S
O2066      H2067   0.992       .  S
C2069      C2070   1.406       .  A
C2069      C3114   1.409       .  A
C2070      C2071   1.400       .  A
C2070      H2075   1.084       .  S
C2071      C2072   1.407       .  A
C2071      O2076   1.372       .  S
C2072      C3113   1.403       .  A
C2073      C3112   1.403   1_455  A
C2073      C2074   1.401       .  A
C2073      H2077   1.084       .  S
C2074      C3109   1.409   1_455  A
C2074      O2078   1.372       .  S
O2076      H2080   0.992       .  S
O2078      H2079   0.992       .  S
N2081      C2086   1.353       .  A
N2081      C2085   1.353       .  A
N2081      H2113   1.041       .  S
N2082      C2089   1.351       .  A
N2082      C2090   1.351       .  A
N2083      C2088   1.352       .  A
N2083      C2087   1.347       .  A
N2083      H2114   1.039       .  S
N2084      C2091   1.345       .  A
N2084      C2092   1.349       .  A
C2085      C2093   1.385       .  A
C2085      C3141   1.411   1_545  A
C2086      C2102   1.417       .  A
C2086      C2094   1.390       .  A
C2087      C2095   1.386       .  A
C2087      C2104   1.406       .  A
C2088      C3143   1.413       .  A
C2088      C2096   1.387       .  A
C2089      C2101   1.407       .  A
C2089      C2097   1.385       .  A
C2090      C2098   1.388       .  A
C2091      C2099   1.386       .  A
C2092      C2100   1.386       .  A
C2092      C2103   1.412   1_445  A
C2093      C2094   1.376       .  A
C2093      H2105   1.083       .  S
C2094      H2106   1.082       .  S
C2095      C2096   1.377       .  A
C2095      H2107   1.083       .  S
C2096      H2108   1.082       .  S
C2097      C2098   1.372       .  A
C2097      H2109   1.083       .  S
C2098      H2110   1.082       .  S
C2099      C2100   1.375       .  A
C2099      H2111   1.083       .  S
C2100      H2112   1.082       .  S
C2101      C3125   1.411       .  A
C2101      C2420   1.475       .  S
C2103      C3128   1.413       .  A
C2103      C3112   1.487       .  S
C2104      C3088   1.476       .  S
N2115      C2120   1.351       .  A
N2115      C2119   1.353       .  A
N2116      C2123   1.352       .  A
N2116      C2124   1.350       .  A
N2117      C2122   1.353       .  A
N2117      C2121   1.346       .  A
N2117      H2148   1.041       .  S
N2118      C2125   1.344       .  A
N2118      C2126   1.350       .  A
C2119      C2127   1.384       .  A
C2119      C2135   1.406       .  A
C2120      C2128   1.391       .  A
C2121      C2129   1.386       .  A
C2121      C2138   1.405       .  A
C2122      C2137   1.415       .  A
C2122      C2130   1.387       .  A
C2123      C2135   1.406       .  A
C2123      C2131   1.384       .  A
C2124      C2132   1.389       .  A
C2125      C2133   1.385       .  A
C2125      C2136   1.404       .  A
C2126      C2134   1.387       .  A
C2126      C2137   1.413   1_455  A
C2127      C2128   1.376       .  A
C2127      H2139   1.083       .  S
C2128      H2140   1.082       .  S
C2129      C2130   1.379       .  A
C2129      H2141   1.082       .  S
C2130      H2142   1.082       .  S
C2131      C2132   1.373       .  A
C2131      H2143   1.083       .  S
C2132      H2144   1.082       .  S
C2133      C2134   1.376       .  A
C2133      H2145   1.082       .  S
C2134      H2146   1.082       .  S
C2135      C2435   1.476       .  S
C2136      C3097   1.473       .  S
C2137      C3076   1.495       .  S
C2138      C3085   1.474       .  S
N2149      C2154   1.354       .  A
N2149      C2153   1.352       .  A
N2149      H2181   1.041       .  S
N2150      C2157   1.352       .  A
N2150      C2158   1.353       .  A
N2151      C2156   1.352       .  A
N2151      C2155   1.346       .  A
N2151      H2182   1.041       .  S
N2152      C2159   1.343       .  A
N2152      C2160   1.348       .  A
C2153      C2161   1.385       .  A
C2153      C2169   1.410       .  A
C2154      C2170   1.418       .  A
C2154      C2162   1.390       .  A
C2155      C2163   1.386       .  A
C2155      C2172   1.405       .  A
C2156      C3211   1.414   1_545  A
C2156      C2164   1.387       .  A
C2157      C3209   1.410   1_545  A
C2157      C2165   1.385       .  A
C2158      C2172   1.415       .  A
C2158      C2166   1.388       .  A
C2159      C2167   1.387       .  A
C2159      C2170   1.404       .  A
C2160      C2168   1.386       .  A
C2160      C2171   1.410       .  A
C2161      C2162   1.378       .  A
C2161      H2173   1.083       .  S
C2162      H2174   1.082       .  S
C2163      C2164   1.378       .  A
C2163      H2175   1.082       .  S
C2164      H2176   1.082       .  S
C2165      C2166   1.374       .  A
C2165      H2177   1.083       .  S
C2166      H2178   1.081       .  S
C2167      C2168   1.375       .  A
C2167      H2179   1.082       .  S
C2168      H2180   1.082       .  S
C2169      C3197   1.411       .  A
C2169      C2448   1.477       .  S
C2170      C3037   1.480       .  S
C2171      C3196   1.414       .  A
C2171      C3064   1.488       .  S
C2172      C3049   1.480       .  S
N2183      C2188   1.354       .  A
N2183      C2187   1.351       .  A
N2183      H2215   1.042       .  S
N2184      C2191   1.346       .  A
N2184      C2192   1.351       .  A
N2185      C2190   1.348       .  A
N2185      C2189   1.353       .  A
N2185      H2216   1.040       .  S
N2186      C2193   1.352       .  A
N2186      C2194   1.350       .  A
C2187      C2195   1.392       .  A
C2187      C2203   1.418       .  A
C2188      C2204   1.405       .  A
C2188      C2196   1.382       .  A
C2189      C2197   1.387       .  A
C2189      C2206   1.414       .  A
C2190      C2205   1.409       .  A
C2190      C2198   1.387       .  A
C2191      C2203   1.409       .  A
C2191      C2199   1.387       .  A
C2192      C2206   1.413       .  A
C2192      C2200   1.386       .  A
C2193      C2201   1.383       .  A
C2193      C2204   1.404       .  A
C2194      C2202   1.390       .  A
C2194      C2205   1.414       .  A
C2195      C2196   1.374       .  A
C2195      H2207   1.081       .  S
C2196      H2208   1.083       .  S
C2197      C2198   1.378       .  A
C2197      H2209   1.082       .  S
C2198      H2210   1.083       .  S
C2199      C2200   1.377       .  A
C2199      H2211   1.082       .  S
C2200      H2212   1.082       .  S
C2201      C2202   1.373       .  A
C2201      H2213   1.083       .  S
C2202      H2214   1.081       .  S
C2203      C3040   1.478       .  S
C2204      C2463   1.478       .  S
C2205      C3052   1.477       .  S
C2206      C3025   1.491       .  S
N2217      C2222   1.357       .  A
N2217      C2221   1.347       .  A
N2217      H2249   1.038       .  S
N2218      C2225   1.349       .  A
N2218      C2226   1.352       .  A
N2219      C2224   1.349       .  A
N2219      C2223   1.354   1_545  A
N2219      H2250   1.041       .  S
N2220      C2227   1.350       .  A
N2220      C2228   1.344       .  A
C2221      C2229   1.385       .  A
C2221      C2237   1.409       .  A
C2222      C2230   1.390       .  A
C2223      C2231   1.384       .  A
C2223      C2240   1.408       .  A
C2224      C2239   1.413       .  A
C2224      C2232   1.391       .  A
C2225      C2237   1.412       .  A
C2225      C2233   1.389       .  A
C2226      C2234   1.383       .  A
C2227      C2235   1.389       .  A
C2227      C2238   1.416   1_645  A
C2228      C2236   1.385       .  A
C2228      C2239   1.404       .  A
C2229      C2230   1.375       .  A
C2229      H2241   1.083       .  S
C2230      H2242   1.080       .  S
C2231      C2232   1.373   1_565  A
C2231      H2243   1.082       .  S
C2232      H2244   1.083       .  S
C2233      C2234   1.373       .  A
C2233      H2245   1.082       .  S
C2234      H2246   1.082       .  S
C2235      C2236   1.371       .  A
C2235      H2247   1.080       .  S
C2236      H2248   1.083       .  S
C2237      C3016   1.471       .  S
C2238      C3404   1.491       .  S
C2239      C3001   1.465       .  S
C2240      C3109   1.492       .  S
N2251      C2256   1.345       .  A
N2251      C2255   1.357       .  A
N2251      H2283   1.039       .  S
N2252      C2259   1.352       .  A
N2252      C2260   1.345       .  A
N2253      C2258   1.357       .  A
N2253      C2257   1.352       .  A
N2253      H2284   1.040       .  S
N2254      C2261   1.350       .  A
N2254      C2262   1.353       .  A
C2255      C2263   1.391       .  A
C2256      C2272   1.406       .  A
C2256      C2264   1.383       .  A
C2257      C2265   1.390       .  A
C2257      C2274   1.416       .  A
C2258      C2273   1.411       .  A
C2258      C2266   1.383       .  A
C2259      C2271   1.420       .  A
C2259      C2267   1.389       .  A
C2260      C2274   1.407       .  A
C2260      C2268   1.386       .  A
C2261      C2269   1.389       .  A
C2261      C2272   1.413       .  A
C2262      C2270   1.383       .  A
C2263      C2264   1.377       .  A
C2263      H2275   1.079       .  S
C2264      H2276   1.083       .  S
C2265      C2266   1.371       .  A
C2265      H2277   1.082       .  S
C2266      H2278   1.082       .  S
C2267      C2268   1.370       .  A
C2267      H2279   1.080       .  S
C2268      H2280   1.083       .  S
C2269      C2270   1.371       .  A
C2269      H2281   1.082       .  S
C2270      H2282   1.082       .  S
C2271      C2378   1.495       .  S
C2272      C2989   1.471       .  S
C2273      C3073   1.494       .  S
C2274      C2977   1.469       .  S
N2285      C2290   1.347       .  A
N2285      C2289   1.357       .  A
N2285      H2317   1.037       .  S
N2286      C2293   1.351       .  A
N2286      C2294   1.344       .  A
N2287      C2292   1.354       .  A
N2287      C2291   1.350       .  A
N2287      H2318   1.040       .  S
N2288      C2295   1.349       .  A
N2288      C2296   1.352       .  A
C2289      C2297   1.392       .  A
C2289      C2305   1.424       .  A
C2290      C2306   1.408       .  A
C2290      C2298   1.384       .  A
C2291      C2299   1.391       .  A
C2291      C2308   1.415       .  A
C2292      C2307   1.407       .  A
C2292      C2300   1.383       .  A
C2293      C2305   1.417       .  A
C2293      C2301   1.390       .  A
C2294      C2308   1.405       .  A
C2294      C2302   1.385       .  A
C2295      C2303   1.389       .  A
C2295      C2306   1.412       .  A
C2296      C2304   1.382       .  A
C2296      C2307   1.405       .  A
C2297      C2298   1.374       .  A
C2297      H2309   1.080       .  S
C2298      H2310   1.083       .  S
C2299      C2300   1.373       .  A
C2299      H2311   1.082       .  S
C2300      H2312   1.083       .  S
C2301      C2302   1.370       .  A
C2301      H2313   1.080       .  S
C2302      H2314   1.083       .  S
C2303      C2304   1.370       .  A
C2303      H2315   1.082       .  S
C2304      H2316   1.082       .  S
C2305      C2394   1.489       .  S
C2306      C3013   1.470       .  S
C2307      C3061   1.483       .  S
C2308      C3004   1.467       .  S
N2319      C2324   1.355       .  A
N2319      C2323   1.347       .  A
N2319      H2351   1.037       .  S
N2320      C2327   1.349       .  A
N2320      C2328   1.352       .  A
N2321      C2326   1.351       .  A
N2321      C2325   1.356       .  A
N2321      H2352   1.040       .  S
N2322      C2329   1.352       .  A
N2322      C2330   1.346       .  A
C2323      C2331   1.385       .  A
C2323      C2339   1.408       .  A
C2324      C2340   1.418       .  A
C2324      C2332   1.391       .  A
C2325      C2333   1.384       .  A
C2325      C2342   1.411       .  A
C2326      C2341   1.417       .  A
C2326      C2334   1.391       .  A
C2327      C2339   1.412       .  A
C2327      C2335   1.389       .  A
C2328      C2342   1.407       .  A
C2328      C2336   1.384       .  A
C2329      C2337   1.388       .  A
C2329      C2340   1.417       .  A
C2330      C2338   1.387       .  A
C2330      C2341   1.410       .  A
C2331      C2332   1.372       .  A
C2331      H2343   1.083       .  S
C2332      H2344   1.080       .  S
C2333      C2334   1.373       .  A
C2333      H2345   1.082       .  S
C2334      H2346   1.082       .  S
C2335      C2336   1.372       .  A
C2335      H2347   1.082       .  S
C2336      H2348   1.082       .  S
C2337      C2338   1.373       .  A
C2337      H2349   1.081       .  S
C2338      H2350   1.083       .  S
C2339      C2992   1.469       .  S
C2340      C2405   1.486       .  S
C2341      C2980   1.471       .  S
C2342      C3028   1.488       .  S
O2353     Cu2361   2.009       .  S
O2353      C3403   1.277   1_545  A
O2354     Cu2361   2.011       .  S
O2354      C3404   1.278   1_545  A
O2355     Cu2361   2.095   1_655  S
O2355      C3405   1.288   1_545  A
O2356      C3406   1.286   1_545  A
O2357      C2366   1.288       .  A
O2358     Cu2362   2.080   1_655  S
O2358      C2365   1.287       .  A
O2359     Cu2362   2.013       .  S
O2359      C2364   1.277       .  A
O2360     Cu2362   2.014       .  S
O2360      C2363   1.277       .  A
Cu2361    Cu3402   2.357   1_545  S
Cu2362    Cu3401   2.357       .  S
C2363      C2621   1.493       .  S
C2363      O3393   1.277       .  A
C2364      C3278   1.491       .  S
C2364      O3394   1.278       .  A
C2365      C2953   1.542       .  S
C2365      O3395   1.288       .  A
C2366      C2965   1.540       .  S
C2366      O3396   1.286       .  A
O2367     Cu2375   2.026       .  S
O2367      C2377   1.279       .  A
O2368     Cu2375   2.023       .  S
O2368      C2378   1.278       .  A
O2369     Cu2375   2.088       .  S
O2369      C2379   1.288       .  A
O2370      C2380   1.288       .  A
O2371      C2380   1.286       .  A
O2372     Cu2376   2.083       .  S
O2372      C2379   1.287       .  A
O2373     Cu2376   2.004       .  S
O2373      C2378   1.277       .  A
O2374     Cu2376   2.000       .  S
O2374      C2377   1.276       .  A
Cu2375    Cu2376   2.355       .  S
C2377      C2655   1.492       .  S
C2379      C2932   1.541       .  S
C2380      C2941   1.542       .  S
O2381     Cu2389   2.094       .  S
O2381      C2391   1.288       .  A
O2382     Cu2389   2.079       .  S
O2382      C2392   1.287       .  A
O2383     Cu2389   1.999       .  S
O2383      C2393   1.275       .  A
O2384     Cu2389   1.999       .  S
O2384      C2394   1.275       .  A
O2385     Cu2390   2.014       .  S
O2385      C3434   1.279   1_545  A
O2386     Cu2390   2.011       .  S
O2386      C3433   1.279   1_545  A
O2387     Cu2390   2.092       .  S
O2387      C3432   1.288   1_545  A
O2388     Cu2390   2.077       .  S
O2388      C3431   1.286   1_545  A
Cu2389    Cu3430   2.358       .  S
Cu2390    Cu3429   2.358   1_545  S
C2391      C2968   1.541       .  S
C2391      O3428   1.286       .  A
C2392      C2956   1.542       .  S
C2392      O3427   1.288       .  A
C2393      C2689   1.485       .  S
C2393      O3426   1.279       .  A
C2394      O3425   1.279       .  A
O2395     Cu2403   2.014       .  S
O2395      C2405   1.279       .  A
O2396     Cu2403   2.026       .  S
O2396      C2406   1.279       .  A
O2397     Cu2403   2.082       .  S
O2397      C2407   1.287       .  A
O2398     Cu2403   2.082       .  S
O2398      C2408   1.286       .  A
O2399     Cu2404   2.091       .  S
O2399      C2408   1.288       .  A
O2400     Cu2404   2.086       .  S
O2400      C2407   1.288       .  A
O2401     Cu2404   2.005       .  S
O2401      C2406   1.277       .  A
O2402     Cu2404   2.002       .  S
O2402      C2405   1.276       .  A
Cu2403    Cu2404   2.357       .  S
C2406      C2723   1.494       .  S
C2407      C2929   1.541       .  S
C2408      C2944   1.542       .  S
O2409     Cu2417   1.995   1_556  S
O2409      C2419   1.275       .  A
O2410     Cu2417   2.002       .  S
O2410      C2420   1.275       .  A
O2411     Cu2417   2.066       .  S
O2411      C2421   1.285       .  A
O2412     Cu3457   2.063   1_545  S
O2412      C2422   1.285       .  A
O2413      C2422   1.284       .  A
O2414      C2421   1.284       .  A
O2415      C2420   1.278       .  A
O2416      C2419   1.277       .  A
Cu2417     O3452   2.063       .  S
C2419      C2485   1.473       .  S
C2421      C2905   1.524       .  S
C2422      C2917   1.524       .  S
O2423     Cu2431   2.058       .  S
O2423      C2433   1.284       .  A
O2424     Cu2431   2.056       .  S
O2424      C2434   1.283       .  A
O2425     Cu2431   2.017       .  S
O2425      C2435   1.278       .  A
O2426     Cu2431   2.013   1_556  S
O2426      C2436   1.278       .  A
O2427      C2436   1.275       .  A
O2428      C2435   1.276       .  A
O2429      C2434   1.285       .  A
O2430      C2433   1.285       .  A
C2433      C2920   1.525       .  S
C2434      C2908   1.522       .  S
C2436      C2519   1.473       .  S
O2437     Cu2445   2.023   1_556  S
O2437      C2447   1.279       .  A
O2438     Cu2445   2.016       .  S
O2438      C2448   1.278       .  A
O2439     Cu3485   2.056   1_545  S
O2439      C2449   1.283       .  A
O2440     Cu2445   2.057       .  S
O2440      C2450   1.283       .  A
O2441     Cu2446   2.066       .  S
O2441      C2450   1.285       .  A
O2442     Cu3486   2.065   1_545  S
O2442      C2449   1.285       .  A
O2443     Cu2446   2.004       .  S
O2443      C2448   1.276       .  A
O2444     Cu2446   2.006   1_556  S
O2444      C2447   1.276       .  A
Cu2445     O3479   2.056       .  S
Cu2445    Cu2446   2.365       .  S
Cu2446     O3482   2.065       .  S
C2447      C2553   1.483       .  S
C2449      C2893   1.523       .  S
C2450      C2881   1.523       .  S
O2451     Cu2459   2.059       .  S
O2451      C2461   1.284       .  A
O2452     Cu2459   2.062       .  S
O2452      C2462   1.285       .  A
O2453     Cu2459   2.008       .  S
O2453      C2463   1.276       .  A
O2454     Cu2459   2.006   1_556  S
O2454      C2464   1.276       .  A
O2455     Cu2460   2.022   1_556  S
O2455      C2464   1.279       .  A
O2456     Cu2460   2.020       .  S
O2456      C2463   1.278       .  A
O2457     Cu2460   2.064       .  S
O2457      C2462   1.285       .  A
O2458     Cu2460   2.061       .  S
O2458      C2461   1.284       .  A
Cu2459    Cu2460   2.365       .  S
C2461      C2896   1.523       .  S
C2462      C2884   1.524       .  S
C2464      C2588   1.481       .  S
N2465      C2470   1.353       .  A
N2465      C2469   1.353       .  A
N2465      H2497   1.040       .  S
N2466      C2473   1.351       .  A
N2466      C2474   1.351       .  A
N2467      C2472   1.352       .  A
N2467      C2471   1.347       .  A
N2467      H2498   1.039   1_655  S
N2468      C2475   1.345       .  A
N2468      C2476   1.349       .  A
C2469      C2477   1.385       .  A
C2469      C2485   1.409       .  A
C2470      C2478   1.390       .  A
C2471      C2479   1.384       .  A
C2471      C2488   1.402       .  A
C2472      C3527   1.414   1_645  A
C2472      C2480   1.389       .  A
C2473      C3525   1.409   1_545  A
C2473      C2481   1.386       .  A
C2474      C2482   1.387       .  A
C2475      C2483   1.386       .  A
C2475      C2486   1.406       .  A
C2476      C2484   1.386       .  A
C2476      C2487   1.412       .  A
C2477      C2478   1.373       .  A
C2477      H2489   1.083       .  S
C2478      H2490   1.082       .  S
C2479      C2480   1.375       .  A
C2479      H2491   1.082       .  S
C2480      H2492   1.082       .  S
C2481      C2482   1.372       .  A
C2481      H2493   1.082       .  S
C2482      H2494   1.082       .  S
C2483      C2484   1.375       .  A
C2483      H2495   1.083       .  S
C2484      H2496   1.082       .  S
C2485      C3513   1.409       .  A
C2486      C2845   1.476       .  S
C2487      C3512   1.414   1_455  A
C2487      C2869   1.486       .  S
C2488      C2857   1.471       .  S
N2499      C2504   1.352       .  A
N2499      C2503   1.352       .  A
N2499      H2531   1.040       .  S
N2500      C2507   1.351       .  A
N2500      C2508   1.351       .  A
N2501      C2506   1.353       .  A
N2501      C2505   1.349       .  A
N2501      H2532   1.039   1_455  S
N2502      C2509   1.345       .  A
N2502      C2510   1.348       .  A
C2503      C2511   1.385       .  A
C2503      C2519   1.407       .  A
C2504      C2512   1.390       .  A
C2505      C2513   1.386       .  A
C2505      C2522   1.408       .  A
C2506      C2521   1.416   1_455  A
C2506      C2514   1.388       .  A
C2507      C2519   1.408       .  A
C2507      C2515   1.385       .  A
C2508      C2516   1.388       .  A
C2509      C2517   1.385       .  A
C2509      C2520   1.402       .  A
C2510      C2518   1.387       .  A
C2510      C2521   1.411       .  A
C2511      C2512   1.373       .  A
C2511      H2523   1.083       .  S
C2512      H2524   1.083       .  S
C2513      C2514   1.376       .  A
C2513      H2525   1.083       .  S
C2514      H2526   1.082       .  S
C2515      C2516   1.373       .  A
C2515      H2527   1.083       .  S
C2516      H2528   1.082       .  S
C2517      C2518   1.375       .  A
C2517      H2529   1.082       .  S
C2518      H2530   1.082       .  S
C2520      C2860   1.472       .  S
C2521      C2833   1.486       .  S
C2522      C2848   1.478       .  S
N2533      C2538   1.354       .  A
N2533      C2537   1.354       .  A
N2533      H2565   1.040       .  S
N2534      C2541   1.354       .  A
N2534      C2542   1.354       .  A
N2535      C2540   1.354       .  A
N2535      C2539   1.348       .  A
N2535      H2566   1.038       .  S
N2536      C2543   1.347       .  A
N2536      C2544   1.350       .  A
C2537      C2545   1.385       .  A
C2537      C2553   1.413       .  A
C2538      C2554   1.418       .  A
C2538      C2546   1.390       .  A
C2539      C2547   1.385       .  A
C2539      C2556   1.409       .  A
C2540      C3595   1.419   1_545  A
C2540      C2548   1.389       .  A
C2541      C3593   1.411   1_545  A
C2541      C2549   1.384       .  A
C2542      C2556   1.417       .  A
C2542      C2550   1.388       .  A
C2543      C2551   1.387       .  A
C2543      C2554   1.408       .  A
C2544      C2552   1.387       .  A
C2544      C2555   1.414       .  A
C2545      C2546   1.373       .  A
C2545      H2557   1.083       .  S
C2546      H2558   1.082       .  S
C2547      C2548   1.379       .  A
C2547      H2559   1.082       .  S
C2548      H2560   1.082       .  S
C2549      C2550   1.371       .  A
C2549      H2561   1.083       .  S
C2550      H2562   1.081       .  S
C2551      C2552   1.374       .  A
C2551      H2563   1.083       .  S
C2552      H2564   1.082       .  S
C2553      C3581   1.411       .  A
C2554      C2797   1.480       .  S
C2555      C3580   1.418       .  A
C2555      C2821   1.491       .  S
C2556      C2809   1.484       .  S
N2567      C2572   1.354       .  A
N2567      C2571   1.355       .  A
N2567      H2599   1.041       .  S
N2568      C2575   1.345       .  A
N2568      C2576   1.350       .  A
N2569      C2574   1.347       .  A
N2569      C2573   1.353       .  A
N2569      H2600   1.040       .  S
N2570      C2577   1.353       .  A
N2570      C2578   1.353       .  A
C2571      C2579   1.390       .  A
C2571      C2587   1.420       .  A
C2572      C2588   1.413       .  A
C2572      C2580   1.385       .  A
C2573      C2581   1.386       .  A
C2573      C2590   1.412       .  A
C2574      C2589   1.407       .  A
C2574      C2582   1.387       .  A
C2575      C2587   1.407       .  A
C2575      C2583   1.386       .  A
C2576      C2590   1.411       .  A
C2576      C2584   1.385       .  A
C2577      C2585   1.386       .  A
C2577      C2588   1.411       .  A
C2578      C2586   1.388       .  A
C2578      C2589   1.415       .  A
C2579      C2580   1.378       .  A
C2579      H2591   1.082       .  S
C2580      H2592   1.083       .  S
C2581      C2582   1.378       .  A
C2581      H2593   1.082       .  S
C2582      H2594   1.083       .  S
C2583      C2584   1.377       .  A
C2583      H2595   1.082       .  S
C2584      H2596   1.082       .  S
C2585      C2586   1.373       .  A
C2585      H2597   1.083       .  S
C2586      H2598   1.082       .  S
C2587      C2812   1.482       .  S
C2589      C2800   1.478       .  S
C2590      C2785   1.489       .  S
N2601      C2606   1.347       .  A
N2601      C2605   1.357       .  A
N2601      H2633   1.038       .  S
N2602      C2609   1.351       .  A
N2602      C2610   1.345       .  A
N2603      C2608   1.353       .  A
N2603      C2607   1.350       .  A
N2603      H2634   1.040   1_655  S
N2604      C2611   1.350       .  A
N2604      C2612   1.353       .  A
C2605      C2613   1.392       .  A
C2606      C2622   1.408       .  A
C2606      C2614   1.383       .  A
C2607      C2615   1.390       .  A
C2607      C2624   1.412       .  A
C2608      C2623   1.407   1_655  A
C2608      C2616   1.384       .  A
C2609      C2621   1.419   1_655  A
C2609      C2617   1.390       .  A
C2610      C2624   1.405       .  A
C2610      C2618   1.384       .  A
C2611      C2619   1.389       .  A
C2611      C2622   1.414       .  A
C2612      C2620   1.383       .  A
C2613      C2614   1.375       .  A
C2613      H2625   1.079       .  S
C2614      H2626   1.083       .  S
C2615      C2616   1.374       .  A
C2615      H2627   1.082       .  S
C2616      H2628   1.082       .  S
C2617      C2618   1.373       .  A
C2617      H2629   1.080       .  S
C2618      H2630   1.083       .  S
C2619      C2620   1.372       .  A
C2619      H2631   1.081       .  S
C2620      H2632   1.082       .  S
C2622      C2773   1.474       .  S
C2623      C2872   1.482       .  S
C2624      C2761   1.470       .  S
N2635      C2640   1.347       .  A
N2635      C2639   1.356       .  A
N2635      H2667   1.038       .  S
N2636      C2643   1.352       .  A
N2636      C2644   1.345       .  A
N2637      C2642   1.355       .  A
N2637      C2641   1.350       .  A
N2637      H2668   1.042       .  S
N2638      C2645   1.348       .  A
N2638      C2646   1.350       .  A
C2639      C2647   1.392       .  A
C2640      C2656   1.405       .  A
C2640      C2648   1.382       .  A
C2641      C2649   1.392       .  A
C2641      C2658   1.418       .  A
C2642      C2657   1.409       .  A
C2642      C2650   1.383       .  A
C2643      C2655   1.418       .  A
C2643      C2651   1.388       .  A
C2644      C2658   1.410       .  A
C2644      C2652   1.386       .  A
C2645      C2653   1.388       .  A
C2645      C2656   1.408       .  A
C2646      C2654   1.384       .  A
C2647      C2648   1.373       .  A
C2647      H2659   1.080       .  S
C2648      H2660   1.083       .  S
C2649      C2650   1.373       .  A
C2649      H2661   1.081       .  S
C2650      H2662   1.082       .  S
C2651      C2652   1.375       .  A
C2651      H2663   1.080       .  S
C2652      H2664   1.083       .  S
C2653      C2654   1.370       .  A
C2653      H2665   1.082       .  S
C2654      H2666   1.082       .  S
C2656      C2749   1.469       .  S
C2657      C2836   1.491       .  S
C2658      C2737   1.473       .  S
N2669      C2674   1.347       .  A
N2669      C2673   1.354       .  A
N2669      H2701   1.040       .  S
N2670      C2677   1.351       .  A
N2670      C2678   1.345       .  A
N2671      C2676   1.353       .  A
N2671      C2675   1.350       .  A
N2671      H2702   1.041       .  S
N2672      C2679   1.350       .  A
N2672      C2680   1.353       .  A
C2673      C2681   1.391       .  A
C2673      C2689   1.419       .  A
C2674      C2690   1.406       .  A
C2674      C2682   1.384       .  A
C2675      C2683   1.390       .  A
C2675      C2692   1.413       .  A
C2676      C2691   1.411       .  A
C2676      C2684   1.385       .  A
C2677      C2689   1.415       .  A
C2677      C2685   1.389       .  A
C2678      C2692   1.407       .  A
C2678      C2686   1.386       .  A
C2679      C2687   1.388       .  A
C2679      C2690   1.412       .  A
C2680      C2688   1.383       .  A
C2680      C2691   1.409       .  A
C2681      C2682   1.375       .  A
C2681      H2693   1.079       .  S
C2682      H2694   1.083       .  S
C2683      C2684   1.374       .  A
C2683      H2695   1.082       .  S
C2684      H2696   1.082       .  S
C2685      C2686   1.372       .  A
C2685      H2697   1.081       .  S
C2686      H2698   1.083       .  S
C2687      C2688   1.372       .  A
C2687      H2699   1.082       .  S
C2688      H2700   1.082       .  S
C2690      C2776   1.474       .  S
C2691      C2824   1.493       .  S
C2692      C2764   1.468       .  S
N2703      C2708   1.346       .  A
N2703      C2707   1.358       .  A
N2703      H2735   1.036       .  S
N2704      C2711   1.352       .  A
N2704      C2712   1.344       .  A
N2705      C2710   1.357       .  A
N2705      C2709   1.352       .  A
N2705      H2736   1.041       .  S
N2706      C2713   1.349       .  A
N2706      C2714   1.353       .  A
C2707      C2715   1.391       .  A
C2707      C2723   1.424       .  A
C2708      C2724   1.408       .  A
C2708      C2716   1.384       .  A
C2709      C2717   1.391       .  A
C2709      C2726   1.420       .  A
C2710      C2725   1.410       .  A
C2710      C2718   1.382       .  A
C2711      C2723   1.416       .  A
C2711      C2719   1.387       .  A
C2712      C2726   1.410       .  A
C2712      C2720   1.387       .  A
C2713      C2721   1.389       .  A
C2713      C2724   1.411       .  A
C2714      C2722   1.384       .  A
C2714      C2725   1.407       .  A
C2715      C2716   1.373       .  A
C2715      H2727   1.080       .  S
C2716      H2728   1.083       .  S
C2717      C2718   1.374       .  A
C2717      H2729   1.081       .  S
C2718      H2730   1.082       .  S
C2719      C2720   1.374       .  A
C2719      H2731   1.080       .  S
C2720      H2732   1.083       .  S
C2721      C2722   1.372       .  A
C2721      H2733   1.082       .  S
C2722      H2734   1.082       .  S
C2724      C2752   1.469       .  S
C2725      C2788   1.489       .  S
C2726      C2740   1.475       .  S
C2737      C2738   1.404       .  A
C2737      C2742   1.404       .  A
C2738      C2739   1.401       .  A
C2738      H2743   1.083       .  S
C2739      C2740   1.406       .  A
C2739      O2744   1.372       .  S
C2740      C2741   1.400       .  A
C2741      C2742   1.385       .  A
C2741      H2745   1.084       .  S
C2742      O2746   1.373       .  S
O2744      H2748   0.992       .  S
O2746      H2747   0.992       .  S
C2749      C2750   1.403       .  A
C2749      C2754   1.405       .  A
C2750      C2751   1.399       .  A
C2750      H2755   1.083       .  S
C2751      C2752   1.406       .  A
C2751      O2756   1.371       .  S
C2752      C2753   1.398       .  A
C2753      C2754   1.383       .  A
C2753      H2757   1.084       .  S
C2754      O2758   1.373       .  S
O2756      H2760   0.992       .  S
O2758      H2759   0.992       .  S
C2761      C3802   1.402       .  A
C2761      C2766   1.406       .  A
C2762      C3801   1.402       .  A
C2762      C2763   1.400       .  A
C2762      H2767   1.083       .  S
C2763      C3804   1.406       .  A
C2763      O2768   1.371       .  S
C2764      C3803   1.406       .  A
C2764      C2765   1.397       .  A
C2765      C2766   1.385       .  A
C2765      H2769   1.084       .  S
C2766      O2770   1.373       .  S
O2768      H2772   0.992       .  S
O2770      H2771   0.992       .  S
C2773      C3814   1.399       .  A
C2773      C2778   1.407       .  A
C2774      C3813   1.399       .  A
C2774      C2775   1.386       .  A
C2774      H2779   1.084       .  S
C2775      C3816   1.406       .  A
C2775      O2780   1.373       .  S
C2776      C3815   1.406       .  A
C2776      C2777   1.404       .  A
C2777      C2778   1.401       .  A
C2777      H2781   1.083       .  S
C2778      O2782   1.371       .  S
O2780      H2784   0.992   1_565  S
O2782      H2783   0.992       .  S
C2785      C2786   1.403       .  A
C2785      C2790   1.408       .  A
C2786      C2787   1.402       .  A
C2786      H2791   1.084       .  S
C2787      C2788   1.408       .  A
C2787      O2792   1.371       .  S
C2788      C2789   1.404       .  A
C2789      C2790   1.403       .  A
C2789      H2793   1.083       .  S
C2790      O2794   1.371       .  S
O2792      H2796   0.991       .  S
O2794      H2795   0.991       .  S
C2797      C2798   1.407       .  A
C2797      C2802   1.405       .  A
C2798      C2799   1.405       .  A
C2798      H2803   1.083       .  S
C2799      C2800   1.408       .  A
C2799      O2804   1.371       .  S
C2800      C2801   1.399       .  A
C2801      C2802   1.384       .  A
C2801      H2805   1.084       .  S
C2802      O2806   1.373       .  S
O2804      H2808   0.992       .  S
O2806      H2807   0.992       .  S
C2809      C2810   1.406       .  A
C2809      C2814   1.408       .  A
C2810      C2811   1.405       .  A
C2810      H2815   1.083       .  S
C2811      C2812   1.407       .  A
C2811      O2816   1.371       .  S
C2812      C2813   1.400       .  A
C2813      C2814   1.391       .  A
C2813      H2817   1.084       .  S
C2814      O2818   1.373       .  S
O2816      H2820   0.991       .  S
O2818      H2819   0.992       .  S
C2821      C2822   1.405       .  A
C2821      C3866   1.407       .  A
C2822      C2823   1.402       .  A
C2822      H2827   1.084       .  S
C2823      C2824   1.410       .  A
C2823      O2828   1.373       .  S
C2824      C3865   1.406       .  A
C2825      C3864   1.406   1_545  A
C2825      C2826   1.401       .  A
C2825      H2829   1.084       .  S
C2826      C3861   1.407   1_545  A
C2826      O2830   1.372       .  S
O2828      H2832   0.992       .  S
O2830      H2831   0.991       .  S
C2833      C2838   1.407       .  A
C2834      C2835   1.401       .  A
C2834      H2839   1.084       .  S
C2835      O2840   1.373       .  S
C2836      C2837   1.405       .  A
C2837      C2838   1.397       .  A
C2837      H2841   1.084       .  S
C2838      O2842   1.372       .  S
O2840      H2844   0.992       .  S
O2842      H2843   0.992       .  S
C2845      C2846   1.399       .  A
C2846      C2847   1.386       .  A
C2846      H2851   1.084       .  S
C2847      C2848   1.405       .  A
C2847      O2852   1.373   1_455  S
C2849      C2850   1.404       .  A
C2849      H2853   1.083       .  S
C2850      O2854   1.371       .  S
O2852      H2856   0.992       .  S
O2854      H2855   0.991       .  S
C2857      C2862   1.406       .  A
C2858      C2859   1.386       .  A
C2858      H2863   1.084       .  S
C2859      O2864   1.373       .  S
C2860      C2861   1.403       .  A
C2861      C2862   1.403       .  A
C2861      H2865   1.083       .  S
C2862      O2866   1.371       .  S
O2864      H2868   0.992       .  S
O2866      H2867   0.992       .  S
C2869      C3910   1.404       .  A
C2869      C2874   1.408       .  A
C2870      C3909   1.404   1_545  A
C2871      O2876   1.371       .  S
C2872      C2873   1.402       .  A
C2873      C2874   1.400       .  A
C2873      H2877   1.083   1_455  S
C2874      O2878   1.372   1_455  S
O2876      H2880   0.992       .  S
O2878      H2879   0.991   1_655  S
C2881      C2882   1.411       .  A
C2881      C2886   1.419       .  A
C2882      C2883   1.417       .  A
C2882      H2887   1.083       .  S
C2883      C2884   1.418       .  A
C2883      O2888   1.371       .  S
C2884      C2885   1.412       .  A
C2885      C2886   1.418       .  A
C2885      H2889   1.083       .  S
C2886      O2890   1.371       .  S
O2888      H2892   0.992       .  S
O2890      H2891   0.992       .  S
C2893      C2894   1.411       .  A
C2893      C2898   1.419       .  A
C2894      C2895   1.416       .  A
C2894      H2899   1.083       .  S
C2895      C2896   1.418       .  A
C2895      O2900   1.371       .  S
C2896      C2897   1.412       .  A
C2897      C2898   1.417       .  A
C2897      H2901   1.083       .  S
C2898      O2902   1.371       .  S
O2900      H2904   0.992       .  S
O2902      H2903   0.992       .  S
C2905      C2910   1.419       .  A
C2906      C2907   1.414       .  A
C2906      H2911   1.083       .  S
C2907      O2912   1.371       .  S
C2908      C2909   1.413       .  A
C2909      C2910   1.418       .  A
C2909      H2913   1.083       .  S
C2910      O2914   1.371       .  S
O2912      H2916   0.992       .  S
O2914      H2915   0.992       .  S
C2917      C2918   1.413       .  A
C2917      C2922   1.417       .  A
C2918      C2919   1.419       .  A
C2918      H2923   1.083       .  S
C2919      C2920   1.419       .  A
C2919      O2924   1.371       .  S
C2920      C2921   1.412       .  A
C2921      C2922   1.416       .  A
C2921      H2925   1.083       .  S
C2922      O2926   1.371       .  S
O2924      H2928   0.992       .  S
O2926      H2927   0.992       .  S
C2929      C2930   1.416       .  A
C2929      C2934   1.421       .  A
C2930      C2931   1.425       .  A
C2930      H2935   1.083       .  S
C2931      C2932   1.421       .  A
C2931      O2936   1.371       .  S
C2932      C2933   1.415       .  A
C2933      C2934   1.424       .  A
C2933      H2937   1.083       .  S
C2934      O2938   1.371       .  S
O2936      H2940   0.991       .  S
O2938      H2939   0.992       .  S
C2941      C2942   1.415       .  A
C2941      C2946   1.422       .  A
C2942      C2943   1.425       .  A
C2942      H2947   1.083       .  S
C2943      C2944   1.422       .  A
C2943      O2948   1.371       .  S
C2944      C2945   1.415       .  A
C2945      C2946   1.425       .  A
C2945      H2949   1.083       .  S
C2946      O2950   1.371       .  S
O2948      H2952   0.992       .  S
O2950      H2951   0.992       .  S
C2953      C2954   1.414       .  A
C2953      C3998   1.422       .  A
C2954      C2955   1.423       .  A
C2954      H2959   1.083       .  S
C2955      C2956   1.421       .  A
C2955      O2960   1.371       .  S
C2956      C3997   1.417       .  A
C2957      C3996   1.417   1_545  A
C2957      C2958   1.428       .  A
C2957      H2961   1.083       .  S
C2958      C3993   1.422   1_545  A
C2958      O2962   1.371       .  S
O2960      H2964   0.992       .  S
O2962      H2963   0.992       .  S
C2965      C2966   1.416       .  A
C2965      C4010   1.421       .  A
C2966      C2967   1.426       .  A
C2966      H2971   1.083       .  S
C2967      C2968   1.422       .  A
C2967      O2972   1.371       .  S
C2968      C4009   1.414       .  A
C2969      C4008   1.414   1_545  A
C2969      C2970   1.422       .  A
C2969      H2973   1.083       .  S
C2970      C4005   1.421   1_545  A
C2970      O2974   1.371       .  S
O2972      H2976   0.992       .  S
O2974      H2975   0.992       .  S
C2977      C2978   1.398       .  A
C2977      C2982   1.405       .  A
C2978      C2979   1.383       .  A
C2978      H2983   1.084       .  S
C2979      C2980   1.404       .  A
C2979      O2984   1.372       .  S
C2980      C2981   1.404       .  A
C2981      C2982   1.401       .  A
C2981      H2985   1.083       .  S
C2982      O2986   1.371       .  S
O2984      H2988   0.992       .  S
O2986      H2987   0.992       .  S
C2989      C2990   1.403       .  A
C2989      C2994   1.407       .  A
C2990      C2991   1.400       .  A
C2990      H2995   1.083       .  S
C2991      C2992   1.405       .  A
C2991      O2996   1.371       .  S
C2992      C2993   1.397       .  A
C2993      C2994   1.385       .  A
C2993      H2997   1.084       .  S
C2994      O2998   1.373       .  S
O2996      H3000   0.992       .  S
O2998      H2999   0.992       .  S
C3001      C3002   1.401       .  A
C3001      C4046   1.403       .  A
C3002      C3003   1.399       .  A
C3002      H3007   1.083       .  S
C3003      C4044   1.404       .  A
C3003      O3008   1.371       .  S
C3004      C4043   1.404       .  A
C3004      C3005   1.399       .  A
C3005      C3006   1.384       .  A
C3005      H3009   1.084       .  S
C3006      C4041   1.403       .  A
C3006      O3010   1.373       .  S
O3008      H3012   0.992       .  S
O3010      H3011   0.992       .  S
C3013      C4054   1.398       .  A
C3013      C3018   1.406       .  A
C3014      C4053   1.398       .  A
C3014      C3015   1.383       .  A
C3014      H3019   1.084       .  S
C3015      C3016   1.405       .  A
C3015      O3020   1.373       .  S
C3016      C4057   1.404       .  A
C3017      C4056   1.404       .  A
C3017      C3018   1.402       .  A
C3017      H3021   1.083       .  S
C3018      O3022   1.372       .  S
O3020      H3024   0.992       .  S
O3022      H3023   0.991       .  S
C3025      C3026   1.404       .  A
C3025      C3030   1.410       .  A
C3026      C3027   1.401       .  A
C3026      H3031   1.083       .  S
C3027      C3028   1.407       .  A
C3027      O3032   1.371       .  S
C3028      C3029   1.403       .  A
C3029      C3030   1.403       .  A
C3029      H3033   1.083       .  S
C3030      O3034   1.371       .  S
O3032      H3036   0.992       .  S
O3034      H3035   0.991       .  S
C3037      C3038   1.404       .  A
C3037      C3042   1.408       .  A
C3038      C3039   1.403       .  A
C3038      H3043   1.083       .  S
C3039      C3040   1.409       .  A
C3039      O3044   1.372       .  S
C3040      C3041   1.398       .  A
C3041      C3042   1.388       .  A
C3041      H3045   1.084       .  S
C3042      O3046   1.373       .  S
O3044      H3048   0.992       .  S
O3046      H3047   0.992       .  S
C3049      C3050   1.405       .  A
C3049      C3054   1.408       .  A
C3050      C3051   1.404       .  A
C3050      H3055   1.083       .  S
C3051      C3052   1.408       .  A
C3051      O3056   1.372       .  S
C3052      C3053   1.398       .  A
C3053      C3054   1.386       .  A
C3053      H3057   1.084       .  S
C3054      O3058   1.373       .  S
O3056      H3060   0.992       .  S
O3058      H3059   0.992       .  S
C3061      C4102   1.401       .  A
C3061      C3066   1.406       .  A
C3062      C4101   1.401   1_545  A
C3062      C3063   1.401       .  A
C3062      H3067   1.083       .  S
C3063      C4104   1.409   1_545  A
C3063      O3068   1.372       .  S
C3064      C4103   1.409       .  A
C3064      C3065   1.405       .  A
C3065      C3066   1.399       .  A
C3065      H3069   1.084       .  S
C3066      O3070   1.371       .  S
O3068      H3072   0.992       .  S
O3070      H3071   0.992       .  S
C3073      C3078   1.409       .  A
C3074      C3075   1.403       .  A
C3074      H3079   1.084       .  S
C3075      O3080   1.373       .  S
C3076      C3077   1.405       .  A
C3077      C3078   1.401       .  A
C3077      H3081   1.084       .  S
C3078      O3082   1.372       .  S
O3080      H3084   0.991       .  S
O3082      H3083   0.992       .  S
C3085      C3090   1.408       .  A
C3086      C3087   1.385       .  A
C3086      H3091   1.084       .  S
C3087      O3092   1.373       .  S
C3088      C3089   1.405       .  A
C3089      C3090   1.402       .  A
C3089      H3093   1.083       .  S
C3090      O3094   1.371       .  S
O3092      H3096   0.992       .  S
O3094      H3095   0.992       .  S
C3097      C3098   1.398       .  A
C3098      C3099   1.387       .  A
C3098      H3103   1.084   1_455  S
C3099      C3100   1.408       .  A
C3099      O3104   1.373   1_455  S
C3101      C3102   1.402       .  A
C3101      H3105   1.083       .  S
C3102      O3106   1.371       .  S
O3104      H3108   0.992       .  S
O3106      H3107   0.992       .  S
C3109      C3110   1.406   1_565  A
C3110      C3111   1.400       .  A
C3110      H3115   1.084       .  S
C3111      C3112   1.407   1_545  A
C3111      O3116   1.372       .  S
C3113      C3114   1.401       .  A
C3113      H3117   1.084       .  S
C3114      O3118   1.372       .  S
O3116      H3120   0.992       .  S
O3118      H3119   0.992       .  S
N3121      C3126   1.353       .  A
N3121      C3125   1.353       .  A
N3121      H3153   1.040       .  S
N3122      C3129   1.351       .  A
N3122      C3130   1.351       .  A
N3123      C3128   1.352       .  A
N3123      C3127   1.347       .  A
N3123      H3154   1.039       .  S
N3124      C3131   1.345       .  A
N3124      C3132   1.349       .  A
C3125      C3133   1.385       .  A
C3126      C3142   1.417       .  A
C3126      C3134   1.390       .  A
C3127      C3135   1.386       .  A
C3127      C3144   1.406       .  A
C3128      C3136   1.387       .  A
C3129      C3141   1.407       .  A
C3129      C3137   1.385       .  A
C3130      C3138   1.388       .  A
C3131      C3139   1.386       .  A
C3132      C3140   1.386       .  A
C3132      C3143   1.412   1_455  A
C3133      C3134   1.376       .  A
C3133      H3145   1.083       .  S
C3134      H3146   1.082       .  S
C3135      C3136   1.377       .  A
C3135      H3147   1.083       .  S
C3136      H3148   1.082       .  S
C3137      C3138   1.372       .  A
C3137      H3149   1.083       .  S
C3138      H3150   1.082       .  S
C3139      C3140   1.374       .  A
C3139      H3151   1.083       .  S
C3140      H3152   1.082       .  S
C3141      C3460   1.475       .  S
C3143      C4152   1.487       .  S
C3144      C4128   1.476       .  S
N3155      C3160   1.351       .  A
N3155      C3159   1.353       .  A
N3156      C3163   1.352       .  A
N3156      C3164   1.350       .  A
N3157      C3162   1.353       .  A
N3157      C3161   1.346       .  A
N3157      H3188   1.041       .  S
N3158      C3165   1.344       .  A
N3158      C3166   1.350       .  A
C3159      C3167   1.384       .  A
C3159      C3175   1.406       .  A
C3160      C3168   1.391       .  A
C3161      C3169   1.386       .  A
C3161      C3178   1.405       .  A
C3162      C3177   1.415       .  A
C3162      C3170   1.387       .  A
C3163      C3175   1.406       .  A
C3163      C3171   1.384       .  A
C3164      C3172   1.389       .  A
C3165      C3173   1.385       .  A
C3165      C3176   1.404       .  A
C3166      C3174   1.387       .  A
C3166      C3177   1.413   1_455  A
C3167      C3168   1.376       .  A
C3167      H3179   1.083       .  S
C3168      H3180   1.082       .  S
C3169      C3170   1.379       .  A
C3169      H3181   1.082       .  S
C3170      H3182   1.082       .  S
C3171      C3172   1.373       .  A
C3171      H3183   1.083       .  S
C3172      H3184   1.081       .  S
C3173      C3174   1.376       .  A
C3173      H3185   1.082       .  S
C3174      H3186   1.082       .  S
C3175      C3475   1.477       .  S
C3176      C4137   1.473       .  S
C3177      C4116   1.495       .  S
C3178      C4125   1.474       .  S
N3189      C3194   1.354       .  A
N3189      C3193   1.352       .  A
N3189      H3221   1.041       .  S
N3190      C3197   1.352       .  A
N3190      C3198   1.353       .  A
N3191      C3196   1.352       .  A
N3191      C3195   1.346       .  A
N3191      H3222   1.041       .  S
N3192      C3199   1.343       .  A
N3192      C3200   1.348       .  A
C3193      C3201   1.385       .  A
C3193      C3209   1.410       .  A
C3194      C3210   1.418       .  A
C3194      C3202   1.390       .  A
C3195      C3203   1.386       .  A
C3195      C3212   1.405       .  A
C3196      C3204   1.387       .  A
C3197      C3205   1.385       .  A
C3198      C3212   1.415       .  A
C3198      C3206   1.388       .  A
C3199      C3207   1.387       .  A
C3199      C3210   1.404       .  A
C3200      C3208   1.386       .  A
C3200      C3211   1.410       .  A
C3201      C3202   1.378       .  A
C3201      H3213   1.083       .  S
C3202      H3214   1.082       .  S
C3203      C3204   1.378       .  A
C3203      H3215   1.082       .  S
C3204      H3216   1.082       .  S
C3205      C3206   1.374       .  A
C3205      H3217   1.083       .  S
C3206      H3218   1.081       .  S
C3207      C3208   1.375       .  A
C3207      H3219   1.083       .  S
C3208      H3220   1.082       .  S
C3209      C3488   1.477       .  S
C3210      C4077   1.480       .  S
C3211      C4104   1.488       .  S
C3212      C4089   1.480       .  S
N3223      C3228   1.354       .  A
N3223      C3227   1.351       .  A
N3223      H3255   1.042       .  S
N3224      C3231   1.346       .  A
N3224      C3232   1.351       .  A
N3225      C3230   1.348       .  A
N3225      C3229   1.353       .  A
N3225      H3256   1.040       .  S
N3226      C3233   1.352       .  A
N3226      C3234   1.350       .  A
C3227      C3235   1.392       .  A
C3227      C3243   1.418       .  A
C3228      C3244   1.405       .  A
C3228      C3236   1.382       .  A
C3229      C3237   1.387       .  A
C3229      C3246   1.414       .  A
C3230      C3245   1.409       .  A
C3230      C3238   1.387       .  A
C3231      C3243   1.409       .  A
C3231      C3239   1.387       .  A
C3232      C3246   1.413       .  A
C3232      C3240   1.386       .  A
C3233      C3241   1.382       .  A
C3233      C3244   1.404       .  A
C3234      C3242   1.390       .  A
C3234      C3245   1.414       .  A
C3235      C3236   1.374       .  A
C3235      H3247   1.081       .  S
C3236      H3248   1.083       .  S
C3237      C3238   1.378       .  A
C3237      H3249   1.082       .  S
C3238      H3250   1.082       .  S
C3239      C3240   1.377       .  A
C3239      H3251   1.082       .  S
C3240      H3252   1.082       .  S
C3241      C3242   1.372       .  A
C3241      H3253   1.083       .  S
C3242      H3254   1.081       .  S
C3243      C4080   1.477       .  S
C3244      C3503   1.479       .  S
C3245      C4092   1.477       .  S
C3246      C4065   1.491       .  S
N3257      C3262   1.357       .  A
N3257      C3261   1.347       .  A
N3257      H3289   1.038       .  S
N3258      C3265   1.348       .  A
N3258      C3266   1.353       .  A
N3259      C3264   1.349       .  A
N3259      C3263   1.354       .  A
N3259      H3290   1.041       .  S
N3260      C3267   1.350       .  A
N3260      C3268   1.343       .  A
C3261      C3269   1.385       .  A
C3261      C3277   1.409       .  A
C3262      C3270   1.390       .  A
C3263      C3271   1.384       .  A
C3263      C3280   1.408       .  A
C3264      C3279   1.413       .  A
C3264      C3272   1.391       .  A
C3265      C3277   1.412       .  A
C3265      C3273   1.389       .  A
C3266      C3274   1.383       .  A
C3267      C3275   1.389       .  A
C3267      C3278   1.416   1_655  A
C3268      C3276   1.385       .  A
C3268      C3279   1.404       .  A
C3269      C3270   1.375       .  A
C3269      H3281   1.083       .  S
C3270      H3282   1.080       .  S
C3271      C3272   1.373       .  A
C3271      H3283   1.083       .  S
C3272      H3284   1.083       .  S
C3273      C3274   1.373       .  A
C3273      H3285   1.082       .  S
C3274      H3286   1.082       .  S
C3275      C3276   1.372       .  A
C3275      H3287   1.080       .  S
C3276      H3288   1.083       .  S
C3277      C4056   1.471       .  S
C3279      C4041   1.465       .  S
C3280      C4149   1.491       .  S
N3291      C3296   1.346       .  A
N3291      C3295   1.357       .  A
N3291      H3323   1.037       .  S
N3292      C3299   1.352       .  A
N3292      C3300   1.345       .  A
N3293      C3298   1.357       .  A
N3293      C3297   1.352       .  A
N3293      H3324   1.040       .  S
N3294      C3301   1.350       .  A
N3294      C3302   1.353       .  A
C3295      C3303   1.391       .  A
C3296      C3312   1.406       .  A
C3296      C3304   1.383       .  A
C3297      C3305   1.390       .  A
C3297      C3314   1.416       .  A
C3298      C3313   1.411       .  A
C3298      C3306   1.383       .  A
C3299      C3311   1.420       .  A
C3299      C3307   1.389       .  A
C3300      C3314   1.407       .  A
C3300      C3308   1.386       .  A
C3301      C3309   1.390       .  A
C3301      C3312   1.413       .  A
C3302      C3310   1.383       .  A
C3303      C3304   1.376       .  A
C3303      H3315   1.079       .  S
C3304      H3316   1.083       .  S
C3305      C3306   1.371       .  A
C3305      H3317   1.082       .  S
C3306      H3318   1.082       .  S
C3307      C3308   1.370       .  A
C3307      H3319   1.080       .  S
C3308      H3320   1.083       .  S
C3309      C3310   1.371       .  A
C3309      H3321   1.081       .  S
C3310      H3322   1.082       .  S
C3311      C3418   1.495       .  S
C3312      C4029   1.471       .  S
C3313      C4113   1.495       .  S
C3314      C4017   1.469       .  S
N3325      C3330   1.347       .  A
N3325      C3329   1.357       .  A
N3325      H3357   1.037       .  S
N3326      C3333   1.351       .  A
N3326      C3334   1.344       .  A
N3327      C3332   1.354       .  A
N3327      C3331   1.350       .  A
N3327      H3358   1.040       .  S
N3328      C3335   1.349       .  A
N3328      C3336   1.352       .  A
C3329      C3337   1.392       .  A
C3329      C3345   1.424       .  A
C3330      C3346   1.408       .  A
C3330      C3338   1.384       .  A
C3331      C3339   1.391       .  A
C3331      C3348   1.415       .  A
C3332      C3347   1.407   1_545  A
C3332      C3340   1.383       .  A
C3333      C3345   1.417   1_545  A
C3333      C3341   1.389       .  A
C3334      C3348   1.405       .  A
C3334      C3342   1.385       .  A
C3335      C3343   1.389       .  A
C3335      C3346   1.412       .  A
C3336      C3344   1.382       .  A
C3336      C3347   1.405       .  A
C3337      C3338   1.374       .  A
C3337      H3349   1.080       .  S
C3338      H3350   1.083       .  S
C3339      C3340   1.373       .  A
C3339      H3351   1.082       .  S
C3340      H3352   1.083       .  S
C3341      C3342   1.370       .  A
C3341      H3353   1.080       .  S
C3342      H3354   1.083       .  S
C3343      C3344   1.370       .  A
C3343      H3355   1.082       .  S
C3344      H3356   1.082       .  S
C3345      C3434   1.490       .  S
C3346      C4053   1.470       .  S
C3347      C4101   1.483       .  S
C3348      C4044   1.468       .  S
N3359      C3364   1.355       .  A
N3359      C3363   1.346       .  A
N3359      H3391   1.037       .  S
N3360      C3367   1.349       .  A
N3360      C3368   1.352       .  A
N3361      C3366   1.350       .  A
N3361      C3365   1.356       .  A
N3361      H3392   1.040       .  S
N3362      C3369   1.353       .  A
N3362      C3370   1.346       .  A
C3363      C3371   1.385       .  A
C3363      C3379   1.407       .  A
C3364      C3380   1.418       .  A
C3364      C3372   1.391       .  A
C3365      C3373   1.384       .  A
C3365      C3382   1.412       .  A
C3366      C3381   1.417       .  A
C3366      C3374   1.391       .  A
C3367      C3379   1.412       .  A
C3367      C3375   1.388       .  A
C3368      C3382   1.407       .  A
C3368      C3376   1.384       .  A
C3369      C3377   1.388       .  A
C3369      C3380   1.417       .  A
C3370      C3378   1.387       .  A
C3370      C3381   1.410       .  A
C3371      C3372   1.372       .  A
C3371      H3383   1.083       .  S
C3372      H3384   1.080       .  S
C3373      C3374   1.373       .  A
C3373      H3385   1.082       .  S
C3374      H3386   1.082       .  S
C3375      C3376   1.372       .  A
C3375      H3387   1.082       .  S
C3376      H3388   1.082       .  S
C3377      C3378   1.373       .  A
C3377      H3389   1.082       .  S
C3378      H3390   1.083       .  S
C3379      C4032   1.469       .  S
C3380      C3445   1.486       .  S
C3381      C4020   1.470       .  S
C3382      C4068   1.488       .  S
O3393     Cu3401   2.009       .  S
O3394     Cu3401   2.012       .  S
O3395     Cu3401   2.095   1_655  S
O3397      C3406   1.288       .  A
O3398     Cu3402   2.080   1_655  S
O3398      C3405   1.287       .  A
O3399     Cu3402   2.013       .  S
O3399      C3404   1.277       .  A
O3400     Cu3402   2.014       .  S
O3400      C3403   1.277       .  A
C3403      C3661   1.493       .  S
C3405      C3993   1.542       .  S
C3406      C4005   1.541       .  S
O3407     Cu3415   2.027       .  S
O3407      C3417   1.279       .  A
O3408     Cu3415   2.024       .  S
O3408      C3418   1.279       .  A
O3409     Cu3415   2.088       .  S
O3409      C3419   1.287       .  A
O3410      C3420   1.288       .  A
O3411      C3420   1.287       .  A
O3412     Cu3416   2.083       .  S
O3412      C3419   1.287       .  A
O3413     Cu3416   2.005       .  S
O3413      C3418   1.277       .  A
O3414     Cu3416   2.000       .  S
O3414      C3417   1.276       .  A
Cu3415    Cu3416   2.355       .  S
C3417      C3695   1.492       .  S
C3419      C3972   1.541       .  S
C3420      C3981   1.542       .  S
O3421     Cu3429   2.093       .  S
O3421      C3431   1.288       .  A
O3422     Cu3429   2.079       .  S
O3422      C3432   1.287       .  A
O3423     Cu3429   1.999       .  S
O3423      C3433   1.275       .  A
O3424     Cu3429   2.000       .  S
O3424      C3434   1.276       .  A
O3425     Cu3430   2.014       .  S
O3426     Cu3430   2.011       .  S
O3427     Cu3430   2.092       .  S
O3428     Cu3430   2.077       .  S
C3431      C4008   1.541       .  S
C3432      C3996   1.542       .  S
C3433      C3729   1.485       .  S
O3435     Cu3443   2.014       .  S
O3435      C3445   1.279       .  A
O3436     Cu3443   2.026       .  S
O3436      C3446   1.279       .  A
O3437     Cu3443   2.083       .  S
O3437      C3447   1.287       .  A
O3438     Cu3443   2.083       .  S
O3438      C3448   1.287       .  A
O3439     Cu3444   2.091       .  S
O3439      C3448   1.288       .  A
O3440     Cu3444   2.086       .  S
O3440      C3447   1.287       .  A
O3441     Cu3444   2.006       .  S
O3441      C3446   1.277       .  A
O3442     Cu3444   2.003       .  S
O3442      C3445   1.276       .  A
Cu3443    Cu3444   2.357       .  S
C3446      C3763   1.494       .  S
C3447      C3969   1.541       .  S
C3448      C3984   1.542       .  S
O3449     Cu3457   1.996   1_556  S
O3449      C3459   1.275       .  A
O3450     Cu3457   2.003       .  S
O3450      C3460   1.276       .  A
O3451     Cu3457   2.066       .  S
O3451      C3461   1.285       .  A
O3452      C3462   1.285       .  A
O3453      C3462   1.284       .  A
O3454      C3461   1.284       .  A
O3455      C3460   1.278       .  A
O3456      C3459   1.277       .  A
C3459      C3525   1.473       .  S
C3461      C3945   1.523       .  S
C3462      C3957   1.524       .  S
O3463     Cu3471   2.059       .  S
O3463      C3473   1.284       .  A
O3464     Cu3471   2.056       .  S
O3464      C3474   1.283       .  A
O3465     Cu3471   2.018       .  S
O3465      C3475   1.278       .  A
O3466     Cu3471   2.013   1_556  S
O3466      C3476   1.278       .  A
O3467      C3476   1.275       .  A
O3468      C3475   1.276       .  A
O3469      C3474   1.285       .  A
O3470      C3473   1.285       .  A
C3473      C3960   1.525       .  S
C3474      C3948   1.522       .  S
C3476      C3559   1.473       .  S
O3477     Cu3485   2.023   1_556  S
O3477      C3487   1.279       .  A
O3478     Cu3485   2.016       .  S
O3478      C3488   1.278       .  A
O3479      C3489   1.283       .  A
O3480     Cu3485   2.058       .  S
O3480      C3490   1.283       .  A
O3481     Cu3486   2.067       .  S
O3481      C3490   1.286       .  A
O3482      C3489   1.285       .  A
O3483     Cu3486   2.004       .  S
O3483      C3488   1.276       .  A
O3484     Cu3486   2.006   1_556  S
O3484      C3487   1.276       .  A
Cu3485    Cu3486   2.365       .  S
C3487      C3593   1.482       .  S
C3489      C3933   1.523       .  S
C3490      C3921   1.524       .  S
O3491     Cu3499   2.059       .  S
O3491      C3501   1.284       .  A
O3492     Cu3499   2.063       .  S
O3492      C3502   1.285       .  A
O3493     Cu3499   2.008       .  S
O3493      C3503   1.276       .  A
O3494     Cu3499   2.006   1_556  S
O3494      C3504   1.276       .  A
O3495     Cu3500   2.022   1_556  S
O3495      C3504   1.279       .  A
O3496     Cu3500   2.020       .  S
O3496      C3503   1.278       .  A
O3497     Cu3500   2.064       .  S
O3497      C3502   1.285       .  A
O3498     Cu3500   2.061       .  S
O3498      C3501   1.284       .  A
Cu3499    Cu3500   2.365       .  S
C3501      C3936   1.523       .  S
C3502      C3924   1.524       .  S
C3504      C3628   1.481       .  S
N3505      C3510   1.353       .  A
N3505      C3509   1.353       .  A
N3505      H3537   1.040       .  S
N3506      C3513   1.351       .  A
N3506      C3514   1.351       .  A
N3507      C3512   1.352       .  A
N3507      C3511   1.347       .  A
N3507      H3538   1.039   1_655  S
N3508      C3515   1.345       .  A
N3508      C3516   1.349       .  A
C3509      C3517   1.385       .  A
C3509      C3525   1.409       .  A
C3510      C3518   1.390       .  A
C3511      C3519   1.384       .  A
C3511      C3528   1.402       .  A
C3512      C3520   1.389       .  A
C3513      C3521   1.386       .  A
C3514      C3522   1.387       .  A
C3515      C3523   1.386       .  A
C3515      C3526   1.406       .  A
C3516      C3524   1.386       .  A
C3516      C3527   1.412       .  A
C3517      C3518   1.373       .  A
C3517      H3529   1.083       .  S
C3518      H3530   1.082       .  S
C3519      C3520   1.375       .  A
C3519      H3531   1.082       .  S
C3520      H3532   1.082       .  S
C3521      C3522   1.372       .  A
C3521      H3533   1.082       .  S
C3522      H3534   1.082       .  S
C3523      C3524   1.375       .  A
C3523      H3535   1.083       .  S
C3524      H3536   1.082       .  S
C3526      C3885   1.476       .  S
C3527      C3909   1.486       .  S
C3528      C3897   1.471       .  S
N3539      C3544   1.352       .  A
N3539      C3543   1.352       .  A
N3539      H3571   1.040       .  S
N3540      C3547   1.352       .  A
N3540      C3548   1.351       .  A
N3541      C3546   1.353       .  A
N3541      C3545   1.349       .  A
N3541      H3572   1.038   1_455  S
N3542      C3549   1.345       .  A
N3542      C3550   1.348       .  A
C3543      C3551   1.385       .  A
C3543      C3559   1.407       .  A
C3544      C3552   1.390       .  A
C3545      C3553   1.386       .  A
C3545      C3562   1.408       .  A
C3546      C3561   1.416   1_455  A
C3546      C3554   1.388       .  A
C3547      C3559   1.408       .  A
C3547      C3555   1.385       .  A
C3548      C3556   1.388       .  A
C3549      C3557   1.385       .  A
C3549      C3560   1.402       .  A
C3550      C3558   1.387       .  A
C3550      C3561   1.410       .  A
C3551      C3552   1.373       .  A
C3551      H3563   1.083       .  S
C3552      H3564   1.083       .  S
C3553      C3554   1.376       .  A
C3553      H3565   1.083       .  S
C3554      H3566   1.082       .  S
C3555      C3556   1.373       .  A
C3555      H3567   1.083       .  S
C3556      H3568   1.082       .  S
C3557      C3558   1.375       .  A
C3557      H3569   1.082       .  S
C3558      H3570   1.082       .  S
C3560      C3900   1.472       .  S
C3561      C3873   1.486       .  S
C3562      C3888   1.478       .  S
N3573      C3578   1.355       .  A
N3573      C3577   1.354       .  A
N3573      H3605   1.039       .  S
N3574      C3581   1.354       .  A
N3574      C3582   1.354       .  A
N3575      C3580   1.354       .  A
N3575      C3579   1.348       .  A
N3575      H3606   1.038       .  S
N3576      C3583   1.347       .  A
N3576      C3584   1.350       .  A
C3577      C3585   1.385       .  A
C3577      C3593   1.412       .  A
C3578      C3594   1.418       .  A
C3578      C3586   1.390       .  A
C3579      C3587   1.385       .  A
C3579      C3596   1.409       .  A
C3580      C3588   1.389       .  A
C3581      C3589   1.384       .  A
C3582      C3596   1.417       .  A
C3582      C3590   1.388       .  A
C3583      C3591   1.387       .  A
C3583      C3594   1.408       .  A
C3584      C3592   1.387       .  A
C3584      C3595   1.414       .  A
C3585      C3586   1.373       .  A
C3585      H3597   1.083       .  S
C3586      H3598   1.082       .  S
C3587      C3588   1.379       .  A
C3587      H3599   1.082       .  S
C3588      H3600   1.082       .  S
C3589      C3590   1.371       .  A
C3589      H3601   1.083       .  S
C3590      H3602   1.081       .  S
C3591      C3592   1.374       .  A
C3591      H3603   1.083       .  S
C3592      H3604   1.082       .  S
C3594      C3837   1.480       .  S
C3595      C3861   1.491       .  S
C3596      C3849   1.484       .  S
N3607      C3612   1.354       .  A
N3607      C3611   1.355       .  A
N3607      H3639   1.041       .  S
N3608      C3615   1.345       .  A
N3608      C3616   1.350       .  A
N3609      C3614   1.347       .  A
N3609      C3613   1.353       .  A
N3609      H3640   1.040       .  S
N3610      C3617   1.353       .  A
N3610      C3618   1.353       .  A
C3611      C3619   1.390       .  A
C3611      C3627   1.420       .  A
C3612      C3628   1.413       .  A
C3612      C3620   1.385       .  A
C3613      C3621   1.386       .  A
C3613      C3630   1.412       .  A
C3614      C3629   1.407       .  A
C3614      C3622   1.387       .  A
C3615      C3627   1.407       .  A
C3615      C3623   1.386       .  A
C3616      C3630   1.411       .  A
C3616      C3624   1.385       .  A
C3617      C3625   1.386       .  A
C3617      C3628   1.411       .  A
C3618      C3626   1.388       .  A
C3618      C3629   1.415       .  A
C3619      C3620   1.378       .  A
C3619      H3631   1.082       .  S
C3620      H3632   1.083       .  S
C3621      C3622   1.378       .  A
C3621      H3633   1.082       .  S
C3622      H3634   1.083       .  S
C3623      C3624   1.377       .  A
C3623      H3635   1.082       .  S
C3624      H3636   1.082       .  S
C3625      C3626   1.373       .  A
C3625      H3637   1.083       .  S
C3626      H3638   1.082       .  S
C3627      C3852   1.482       .  S
C3629      C3840   1.478       .  S
C3630      C3825   1.488       .  S
N3641      C3646   1.347       .  A
N3641      C3645   1.357       .  A
N3641      H3673   1.038       .  S
N3642      C3649   1.351       .  A
N3642      C3650   1.345       .  A
N3643      C3648   1.353       .  A
N3643      C3647   1.350       .  A
N3643      H3674   1.040   1_655  S
N3644      C3651   1.350       .  A
N3644      C3652   1.353       .  A
C3645      C3653   1.392       .  A
C3646      C3662   1.408       .  A
C3646      C3654   1.383       .  A
C3647      C3655   1.390       .  A
C3647      C3664   1.412       .  A
C3648      C3663   1.407   1_645  A
C3648      C3656   1.384       .  A
C3649      C3661   1.419   1_645  A
C3649      C3657   1.390       .  A
C3650      C3664   1.404       .  A
C3650      C3658   1.384       .  A
C3651      C3659   1.389       .  A
C3651      C3662   1.414       .  A
C3652      C3660   1.383       .  A
C3653      C3654   1.374       .  A
C3653      H3665   1.079       .  S
C3654      H3666   1.083       .  S
C3655      C3656   1.374       .  A
C3655      H3667   1.082       .  S
C3656      H3668   1.082       .  S
C3657      C3658   1.373       .  A
C3657      H3669   1.080       .  S
C3658      H3670   1.083       .  S
C3659      C3660   1.372       .  A
C3659      H3671   1.081       .  S
C3660      H3672   1.082       .  S
C3662      C3813   1.474       .  S
C3663      C3912   1.482       .  S
C3664      C3801   1.470       .  S
N3675      C3680   1.347       .  A
N3675      C3679   1.356       .  A
N3675      H3707   1.038       .  S
N3676      C3683   1.352       .  A
N3676      C3684   1.345       .  A
N3677      C3682   1.355       .  A
N3677      C3681   1.350       .  A
N3677      H3708   1.042       .  S
N3678      C3685   1.348       .  A
N3678      C3686   1.350       .  A
C3679      C3687   1.392       .  A
C3680      C3696   1.405       .  A
C3680      C3688   1.382       .  A
C3681      C3689   1.392       .  A
C3681      C3698   1.418       .  A
C3682      C3697   1.409       .  A
C3682      C3690   1.383       .  A
C3683      C3695   1.418       .  A
C3683      C3691   1.388       .  A
C3684      C3698   1.410       .  A
C3684      C3692   1.386       .  A
C3685      C3693   1.388       .  A
C3685      C3696   1.408       .  A
C3686      C3694   1.384       .  A
C3687      C3688   1.373       .  A
C3687      H3699   1.080       .  S
C3688      H3700   1.083       .  S
C3689      C3690   1.373       .  A
C3689      H3701   1.081       .  S
C3690      H3702   1.082       .  S
C3691      C3692   1.375       .  A
C3691      H3703   1.080       .  S
C3692      H3704   1.083       .  S
C3693      C3694   1.370       .  A
C3693      H3705   1.082       .  S
C3694      H3706   1.082       .  S
C3696      C3789   1.468       .  S
C3697      C3876   1.491       .  S
C3698      C3777   1.474       .  S
N3709      C3714   1.347       .  A
N3709      C3713   1.354       .  A
N3709      H3741   1.040       .  S
N3710      C3717   1.351       .  A
N3710      C3718   1.345   1_565  A
N3711      C3716   1.353       .  A
N3711      C3715   1.350   1_565  A
N3711      H3742   1.041   1_565  S
N3712      C3719   1.350       .  A
N3712      C3720   1.353       .  A
C3713      C3721   1.391       .  A
C3713      C3729   1.419       .  A
C3714      C3730   1.406       .  A
C3714      C3722   1.384       .  A
C3715      C3723   1.390   1_545  A
C3715      C3732   1.413       .  A
C3716      C3731   1.410       .  A
C3716      C3724   1.385       .  A
C3717      C3729   1.415       .  A
C3717      C3725   1.389   1_565  A
C3718      C3732   1.407       .  A
C3718      C3726   1.386       .  A
C3719      C3727   1.388       .  A
C3719      C3730   1.412       .  A
C3720      C3728   1.383       .  A
C3720      C3731   1.409       .  A
C3721      C3722   1.375       .  A
C3721      H3733   1.079       .  S
C3722      H3734   1.083       .  S
C3723      C3724   1.374       .  A
C3723      H3735   1.082   1_565  S
C3724      H3736   1.082       .  S
C3725      C3726   1.372       .  A
C3725      H3737   1.081       .  S
C3726      H3738   1.083       .  S
C3727      C3728   1.372       .  A
C3727      H3739   1.082       .  S
C3728      H3740   1.082       .  S
C3730      C3816   1.474       .  S
C3731      C3864   1.493       .  S
C3732      C3804   1.468       .  S
N3743      C3748   1.346       .  A
N3743      C3747   1.358       .  A
N3743      H3775   1.036       .  S
N3744      C3751   1.352       .  A
N3744      C3752   1.344       .  A
N3745      C3750   1.357       .  A
N3745      C3749   1.352       .  A
N3745      H3776   1.041       .  S
N3746      C3753   1.349       .  A
N3746      C3754   1.352       .  A
C3747      C3755   1.391       .  A
C3747      C3763   1.424       .  A
C3748      C3764   1.408       .  A
C3748      C3756   1.384       .  A
C3749      C3757   1.391       .  A
C3749      C3766   1.420       .  A
C3750      C3765   1.410       .  A
C3750      C3758   1.382       .  A
C3751      C3763   1.416       .  A
C3751      C3759   1.387       .  A
C3752      C3766   1.410       .  A
C3752      C3760   1.387       .  A
C3753      C3761   1.389       .  A
C3753      C3764   1.412       .  A
C3754      C3762   1.384       .  A
C3754      C3765   1.407       .  A
C3755      C3756   1.373       .  A
C3755      H3767   1.081       .  S
C3756      H3768   1.083       .  S
C3757      C3758   1.374       .  A
C3757      H3769   1.081       .  S
C3758      H3770   1.082       .  S
C3759      C3760   1.374       .  A
C3759      H3771   1.080       .  S
C3760      H3772   1.083       .  S
C3761      C3762   1.372       .  A
C3761      H3773   1.082       .  S
C3762      H3774   1.082       .  S
C3764      C3792   1.469       .  S
C3765      C3828   1.489       .  S
C3766      C3780   1.475       .  S
C3777      C3778   1.404       .  A
C3777      C3782   1.404       .  A
C3778      C3779   1.401       .  A
C3778      H3783   1.083       .  S
C3779      C3780   1.406       .  A
C3779      O3784   1.372       .  S
C3780      C3781   1.400       .  A
C3781      C3782   1.385       .  A
C3781      H3785   1.084       .  S
C3782      O3786   1.373       .  S
O3784      H3788   0.992       .  S
O3786      H3787   0.992       .  S
C3789      C3790   1.403       .  A
C3789      C3794   1.405       .  A
C3790      C3791   1.399       .  A
C3790      H3795   1.083       .  S
C3791      C3792   1.406       .  A
C3791      O3796   1.371       .  S
C3792      C3793   1.398       .  A
C3793      C3794   1.383       .  A
C3793      H3797   1.084       .  S
C3794      O3798   1.373       .  S
O3796      H3800   0.992       .  S
O3798      H3799   0.992       .  S
C3801      C3806   1.406   1_545  A
C3802      C3803   1.400       .  A
C3802      H3807   1.083       .  S
C3803      O3808   1.371       .  S
C3804      C3805   1.397   1_545  A
C3805      C3806   1.385       .  A
C3805      H3809   1.084       .  S
C3806      O3810   1.373       .  S
O3808      H3812   0.992       .  S
O3810      H3811   0.992       .  S
C3813      C3818   1.407       .  A
C3814      C3815   1.386       .  A
C3814      H3819   1.084       .  S
C3815      O3820   1.373       .  S
C3816      C3817   1.404       .  A
C3817      C3818   1.401       .  A
C3817      H3821   1.083       .  S
C3818      O3822   1.371       .  S
O3820      H3824   0.992       .  S
O3822      H3823   0.992       .  S
C3825      C3826   1.403       .  A
C3825      C3830   1.408       .  A
C3826      C3827   1.402       .  A
C3826      H3831   1.084       .  S
C3827      C3828   1.408       .  A
C3827      O3832   1.371       .  S
C3828      C3829   1.404       .  A
C3829      C3830   1.403       .  A
C3829      H3833   1.083       .  S
C3830      O3834   1.371       .  S
O3832      H3836   0.991       .  S
O3834      H3835   0.991       .  S
C3837      C3838   1.407       .  A
C3837      C3842   1.405       .  A
C3838      C3839   1.405       .  A
C3838      H3843   1.083       .  S
C3839      C3840   1.408       .  A
C3839      O3844   1.371       .  S
C3840      C3841   1.399       .  A
C3841      C3842   1.384       .  A
C3841      H3845   1.084       .  S
C3842      O3846   1.373       .  S
O3844      H3848   0.992       .  S
O3846      H3847   0.992       .  S
C3849      C3850   1.406       .  A
C3849      C3854   1.408       .  A
C3850      C3851   1.405       .  A
C3850      H3855   1.083       .  S
C3851      C3852   1.407       .  A
C3851      O3856   1.371       .  S
C3852      C3853   1.400       .  A
C3853      C3854   1.391       .  A
C3853      H3857   1.084       .  S
C3854      O3858   1.373       .  S
O3856      H3860   0.991       .  S
O3858      H3859   0.992       .  S
C3861      C3862   1.405       .  A
C3862      C3863   1.402       .  A
C3862      H3867   1.084       .  S
C3863      C3864   1.409       .  A
C3863      O3868   1.373       .  S
C3865      C3866   1.401       .  A
C3865      H3869   1.084       .  S
C3866      O3870   1.372       .  S
O3868      H3872   0.992       .  S
O3870      H3871   0.991       .  S
C3873      C3878   1.407       .  A
C3874      C3875   1.401       .  A
C3874      H3879   1.084       .  S
C3875      O3880   1.373       .  S
C3876      C3877   1.404       .  A
C3877      C3878   1.397       .  A
C3877      H3881   1.084       .  S
C3878      O3882   1.372       .  S
O3880      H3884   0.992       .  S
O3882      H3883   0.992       .  S
C3885      C3886   1.399       .  A
C3886      C3887   1.386       .  A
C3886      H3891   1.084       .  S
C3887      C3888   1.406       .  A
C3887      O3892   1.373   1_455  S
C3889      C3890   1.404       .  A
C3889      H3893   1.083       .  S
C3890      O3894   1.371       .  S
O3892      H3896   0.992       .  S
O3894      H3895   0.991       .  S
C3897      C3902   1.406       .  A
C3898      C3899   1.386       .  A
C3898      H3903   1.084       .  S
C3899      O3904   1.373       .  S
C3900      C3901   1.403       .  A
C3901      C3902   1.403       .  A
C3901      H3905   1.083       .  S
C3902      O3906   1.370       .  S
O3904      H3908   0.992       .  S
O3906      H3907   0.992       .  S
C3909      C3914   1.408       .  A
C3911      O3916   1.371       .  S
C3912      C3913   1.402       .  A
C3913      C3914   1.400       .  A
C3913      H3917   1.083   1_455  S
C3914      O3918   1.372   1_455  S
O3916      H3920   0.992       .  S
O3918      H3919   0.991   1_655  S
C3921      C3922   1.411       .  A
C3921      C3926   1.419       .  A
C3922      C3923   1.417       .  A
C3922      H3927   1.083       .  S
C3923      C3924   1.418       .  A
C3923      O3928   1.371       .  S
C3924      C3925   1.412       .  A
C3925      C3926   1.418       .  A
C3925      H3929   1.083       .  S
C3926      O3930   1.371       .  S
O3928      H3932   0.992       .  S
O3930      H3931   0.992       .  S
C3933      C3934   1.411       .  A
C3933      C3938   1.419       .  A
C3934      C3935   1.416       .  A
C3934      H3939   1.083       .  S
C3935      C3936   1.418       .  A
C3935      O3940   1.371       .  S
C3936      C3937   1.412       .  A
C3937      C3938   1.417       .  A
C3937      H3941   1.083       .  S
C3938      O3942   1.371       .  S
O3940      H3944   0.992       .  S
O3942      H3943   0.992       .  S
C3945      C3950   1.419       .  A
C3946      C3947   1.415       .  A
C3946      H3951   1.083       .  S
C3947      O3952   1.371       .  S
C3948      C3949   1.413       .  A
C3949      C3950   1.418       .  A
C3949      H3953   1.083       .  S
C3950      O3954   1.371       .  S
O3952      H3956   0.992       .  S
O3954      H3955   0.992       .  S
C3957      C3958   1.413       .  A
C3957      C3962   1.417       .  A
C3958      C3959   1.419       .  A
C3958      H3963   1.083       .  S
C3959      C3960   1.419       .  A
C3959      O3964   1.371       .  S
C3960      C3961   1.412       .  A
C3961      C3962   1.416       .  A
C3961      H3965   1.083       .  S
C3962      O3966   1.371       .  S
O3964      H3968   0.992       .  S
O3966      H3967   0.992       .  S
C3969      C3970   1.416       .  A
C3969      C3974   1.421       .  A
C3970      C3971   1.425       .  A
C3970      H3975   1.083       .  S
C3971      C3972   1.421       .  A
C3971      O3976   1.371       .  S
C3972      C3973   1.415       .  A
C3973      C3974   1.424       .  A
C3973      H3977   1.083       .  S
C3974      O3978   1.371       .  S
O3976      H3980   0.991       .  S
O3978      H3979   0.992       .  S
C3981      C3982   1.415       .  A
C3981      C3986   1.422       .  A
C3982      C3983   1.425       .  A
C3982      H3987   1.083       .  S
C3983      C3984   1.422       .  A
C3983      O3988   1.371       .  S
C3984      C3985   1.415       .  A
C3985      C3986   1.425       .  A
C3985      H3989   1.083       .  S
C3986      O3990   1.371       .  S
O3988      H3992   0.992       .  S
O3990      H3991   0.992       .  S
C3993      C3994   1.414       .  A
C3994      C3995   1.423       .  A
C3994      H3999   1.083       .  S
C3995      C3996   1.421       .  A
C3995      O4000   1.371       .  S
C3997      C3998   1.428       .  A
C3997      H4001   1.083       .  S
C3998      O4002   1.371       .  S
O4000      H4004   0.992       .  S
O4002      H4003   0.992       .  S
C4005      C4006   1.416       .  A
C4006      C4007   1.426       .  A
C4006      H4011   1.083       .  S
C4007      C4008   1.422       .  A
C4007      O4012   1.371       .  S
C4009      C4010   1.422       .  A
C4009      H4013   1.083       .  S
C4010      O4014   1.371       .  S
O4012      H4016   0.992       .  S
O4014      H4015   0.992       .  S
C4017      C4018   1.398       .  A
C4017      C4022   1.405       .  A
C4018      C4019   1.383       .  A
C4018      H4023   1.084       .  S
C4019      C4020   1.403       .  A
C4019      O4024   1.372       .  S
C4020      C4021   1.404       .  A
C4021      C4022   1.400       .  A
C4021      H4025   1.083       .  S
C4022      O4026   1.371       .  S
O4024      H4028   0.992       .  S
O4026      H4027   0.992       .  S
C4029      C4030   1.403       .  A
C4029      C4034   1.407       .  A
C4030      C4031   1.400       .  A
C4030      H4035   1.083       .  S
C4031      C4032   1.405       .  A
C4031      O4036   1.371       .  S
C4032      C4033   1.396       .  A
C4033      C4034   1.385       .  A
C4033      H4037   1.084       .  S
C4034      O4038   1.373       .  S
O4036      H4040   0.992       .  S
O4038      H4039   0.992       .  S
C4041      C4042   1.401       .  A
C4042      C4043   1.399       .  A
C4042      H4047   1.083       .  S
C4043      O4048   1.371       .  S
C4044      C4045   1.399       .  A
C4045      C4046   1.384       .  A
C4045      H4049   1.084   1_545  S
C4046      O4050   1.373   1_545  S
O4048      H4052   0.992       .  S
O4050      H4051   0.992       .  S
C4053      C4058   1.406       .  A
C4054      C4055   1.383       .  A
C4054      H4059   1.084       .  S
C4055      C4056   1.405       .  A
C4055      O4060   1.373       .  S
C4057      C4058   1.402       .  A
C4057      H4061   1.083       .  S
C4058      O4062   1.372       .  S
O4060      H4064   0.992       .  S
O4062      H4063   0.991       .  S
C4065      C4066   1.404       .  A
C4065      C4070   1.410       .  A
C4066      C4067   1.401       .  A
C4066      H4071   1.083       .  S
C4067      C4068   1.407       .  A
C4067      O4072   1.371       .  S
C4068      C4069   1.403       .  A
C4069      C4070   1.403       .  A
C4069      H4073   1.083       .  S
C4070      O4074   1.371       .  S
O4072      H4076   0.992       .  S
O4074      H4075   0.991       .  S
C4077      C4078   1.404       .  A
C4077      C4082   1.408       .  A
C4078      C4079   1.403       .  A
C4078      H4083   1.083       .  S
C4079      C4080   1.409       .  A
C4079      O4084   1.372       .  S
C4080      C4081   1.398       .  A
C4081      C4082   1.387       .  A
C4081      H4085   1.084       .  S
C4082      O4086   1.373       .  S
O4084      H4088   0.992       .  S
O4086      H4087   0.992       .  S
C4089      C4090   1.405       .  A
C4089      C4094   1.408       .  A
C4090      C4091   1.404       .  A
C4090      H4095   1.083       .  S
C4091      C4092   1.408       .  A
C4091      O4096   1.372       .  S
C4092      C4093   1.398       .  A
C4093      C4094   1.386       .  A
C4093      H4097   1.084       .  S
C4094      O4098   1.373       .  S
O4096      H4100   0.992       .  S
O4098      H4099   0.992       .  S
C4101      C4106   1.406       .  A
C4102      C4103   1.401       .  A
C4102      H4107   1.083       .  S
C4103      O4108   1.372       .  S
C4104      C4105   1.405       .  A
C4105      C4106   1.399       .  A
C4105      H4109   1.084       .  S
C4106      O4110   1.371       .  S
O4108      H4112   0.992       .  S
O4110      H4111   0.992       .  S
C4113      C4118   1.409       .  A
C4114      C4115   1.403       .  A
C4114      H4119   1.084       .  S
C4115      O4120   1.373       .  S
C4116      C4117   1.405       .  A
C4117      C4118   1.401       .  A
C4117      H4121   1.084       .  S
C4118      O4122   1.372       .  S
O4120      H4124   0.991       .  S
O4122      H4123   0.992       .  S
C4125      C4130   1.408       .  A
C4126      C4127   1.385       .  A
C4126      H4131   1.084       .  S
C4127      O4132   1.373       .  S
C4128      C4129   1.405       .  A
C4129      C4130   1.402       .  A
C4129      H4133   1.083       .  S
C4130      O4134   1.371       .  S
O4132      H4136   0.992       .  S
O4134      H4135   0.992       .  S
C4137      C4138   1.398       .  A
C4138      C4139   1.387       .  A
C4138      H4143   1.084   1_455  S
C4139      C4140   1.408       .  A
C4139      O4144   1.373   1_455  S
C4141      C4142   1.402       .  A
C4141      H4145   1.083       .  S
C4142      O4146   1.371       .  S
O4144      H4148   0.992       .  S
O4146      H4147   0.992       .  S
C4149      C4150   1.406       .  A
C4150      C4151   1.400       .  A
C4150      H4155   1.084       .  S
C4151      C4152   1.407       .  A
C4151      O4156   1.372       .  S
C4153      C4154   1.401       .  A
C4153      H4157   1.084       .  S
C4154      O4158   1.372       .  S
O4156      H4160   0.992       .  S
O4158      H4159   0.992       .  S
