geometry optimzed in LAMMPS
_audit_creation_date              2020-11-30 
_audit_creation_method            'lammps2cif' 
_symmetry_space_group_name_H-M    'P1' 
_symmetry_Int_Tables_number       1 
_symmetry_cell_setting            triclinic 
loop_ 
_symmetry_equiv_pos_as_xyz 
  x,y,z 
_cell_length_a                    30.05815368 
_cell_length_b                    30.05905352846054 
_cell_length_c                    60.05985422503326 
_cell_angle_alpha                 89.84990208821507 
_cell_angle_beta                  90.15012355864215 
_cell_angle_gamma                 89.70785457634831 
loop_ 
_atom_site_label 
_atom_site_type_symbol 
_atom_site_fract_x 
_atom_site_fract_y 
_atom_site_fract_z 
_atom_site_charge 
O1          O  0.02405292  0.92588486  0.12322242    -0.72400
O2          O  0.02871426  0.05857718  0.12567647    -0.73400
O3          O  0.02577507  0.98995039  0.15802381    -0.62000
O4          O  0.02596176  0.99514734  0.09090182    -0.70400
O5          O  0.95224037  0.99961114  0.09134396    -0.69900
O6          O  0.95186207  0.98995517  0.15768095    -0.61200
O7          O  0.95497781  0.06218446  0.12668322    -0.73700
O8          O  0.95025447  0.92837336  0.12235023    -0.72500
Cu9        Cu  0.02870907  0.99228631  0.12446962     1.04600
Cu10       Cu  0.94974943  0.99521191  0.12451212     1.04300
C11         C  0.98660091  0.90609412  0.12235576     0.93800
C12         C  0.99287898  0.08140597  0.12656117     0.93000
C13         C  0.98861912  0.98850197  0.16831280     0.85100
C14         C  0.98878750  0.99839234  0.08059300     0.91400
O15         O  0.96214909  0.49795717  0.15829934    -0.72400
O16         O  0.96127698  0.49626725  0.09132917    -0.73400
O17         O  0.95697365  0.43028859  0.12529260    -0.62000
O18         O  0.96574723  0.56297697  0.12436686    -0.70400
O19         O  0.03945036  0.55832620  0.12503202    -0.69900
O20         O  0.03057686  0.42452291  0.12420222    -0.61200
O21         O  0.03502931  0.49228538  0.09126625    -0.73700
O22         O  0.03562519  0.48984674  0.15802669    -0.72500
Cu23       Cu  0.95898885  0.49698780  0.12482206     1.04600
Cu24       Cu  0.03778039  0.49107289  0.12463048     1.04300
C25         C  0.99913203  0.49396055  0.16867517     0.93800
C26         C  0.99809330  0.49451353  0.08075207     0.93000
C27         C  0.99220385  0.40639576  0.12480746     0.85100
C28         C  0.00376224  0.58168999  0.12464321     0.91400
O29         O  0.54947599  0.99966602  0.15975210    -0.72400
O30         O  0.55302571  0.99913746  0.09321053    -0.73400
O31         O  0.55003304  0.06612381  0.12642397    -0.62000
O32         O  0.55147225  0.93203555  0.12654774    -0.70400
O33         O  0.47768492  0.93216830  0.12500313    -0.69900
O34         O  0.47621015  0.06528352  0.12580070    -0.61200
O35         O  0.47923598  0.99956410  0.09177472    -0.73700
O36         O  0.47565159  0.99713544  0.15881618    -0.72500
Cu37       Cu  0.55357790  0.99923631  0.12651174     1.04600
Cu38       Cu  0.47460943  0.99856933  0.12529890     1.04300
C39         C  0.51214585  0.99820669  0.16977650     0.93800
C40         C  0.51695707  0.99938846  0.08195394     0.93000
C41         C  0.51273257  0.08677442  0.12626947     0.85100
C42         C  0.51457856  0.91103309  0.12575824     0.91400
O43         O  0.56907176  0.49607490  0.09216860    -0.72400
O44         O  0.56965423  0.50024229  0.15934059    -0.73400
O45         O  0.56927131  0.43177742  0.12699409    -0.62000
O46         O  0.56999103  0.56492428  0.12448850    -0.70400
O47         O  0.49615415  0.56619092  0.12425756    -0.69900
O48         O  0.49544254  0.43239072  0.12740949    -0.61200
O49         O  0.49583135  0.50288458  0.15916577    -0.73700
O50         O  0.49525487  0.49659078  0.09246429    -0.72500
Cu51       Cu  0.57207813  0.49821928  0.12574782     1.04600
Cu52       Cu  0.49310288  0.49945934  0.12582603     1.04300
C53         C  0.53191386  0.49586755  0.08174969     0.93800
C54         C  0.53270531  0.50259084  0.16978299     0.93000
C55         C  0.53235615  0.41102295  0.12762681     0.85100
C56         C  0.53334749  0.58660464  0.12395202     0.91400
O57         O  0.03285276  0.92913707  0.87339772    -0.72400
O58         O  0.03396666  0.06308442  0.87418475    -0.73400
O59         O  0.03564319  0.99528815  0.90702711    -0.62000
O60         O  0.03221434  0.99752627  0.84055583    -0.70400
O61         O  0.95834928  0.99530691  0.84101663    -0.69900
O62         O  0.96185674  0.99727401  0.90815541    -0.61200
O63         O  0.96012707  0.06328969  0.87422152    -0.73700
O64         O  0.95908441  0.93011297  0.87499609    -0.72500
Cu65       Cu  0.03622089  0.99617208  0.87375823     1.04600
Cu66       Cu  0.95723544  0.99656736  0.87462588     1.04300
C67         C  0.99571624  0.90857127  0.87415731     0.93800
C68         C  0.99697988  0.08426761  0.87427339     0.93000
C69         C  0.99952599  0.99640671  0.91812540     0.85100
C70         C  0.99503359  0.99635813  0.83030624     0.91400
O71         O  0.05690433  0.49566260  0.90725559    -0.72400
O72         O  0.04890667  0.49839691  0.84012456    -0.73400
O73         O  0.05258538  0.56325256  0.87414842    -0.62000
O74         O  0.05406709  0.43006970  0.87323048    -0.70400
O75         O  0.98049921  0.42927457  0.87623458    -0.69900
O76         O  0.97876663  0.56319880  0.87502030    -0.61200
O77         O  0.97527983  0.49461679  0.84240374    -0.73700
O78         O  0.98315768  0.49731456  0.90882319    -0.72500
Cu79       Cu  0.05572617  0.49683922  0.87361057     1.04600
Cu80       Cu  0.97687617  0.49611591  0.87569820     1.04300
C81         C  0.02094117  0.49651645  0.91858182     0.93800
C82         C  0.01068168  0.49647519  0.83078046     0.93000
C83         C  0.01561136  0.58428390  0.87455421     0.85100
C84         C  0.01764591  0.40859199  0.87476073     0.91400
O85         O  0.54685068  0.06994221  0.87747560    -0.72400
O86         O  0.54885488  0.93728363  0.87396172    -0.73400
O87         O  0.54839507  0.00717140  0.84208137    -0.62000
O88         O  0.54633920  0.00019536  0.90925366    -0.70400
O89         O  0.47253711  0.00117305  0.90816607    -0.69900
O90         O  0.47463071  0.00395806  0.84156658    -0.61200
O91         O  0.47502660  0.93598932  0.87406675    -0.73700
O92         O  0.47308942  0.07015403  0.87574705    -0.72500
Cu93       Cu  0.55017611  0.00370366  0.87570347     1.04600
Cu94       Cu  0.47122885  0.00287631  0.87485821     1.04300
C95         C  0.50994954  0.09109237  0.87720199     0.93800
C96         C  0.51246563  0.91561642  0.87355187     0.93000
C97         C  0.51170655  0.00557935  0.83128229     0.85100
C98         C  0.50881097  0.99996233  0.91925538     0.91400
O99         O  0.46097360  0.57060321  0.87561043    -0.72400
O100        O  0.45957444  0.43787298  0.87581045    -0.73400
O101        O  0.46132374  0.50438828  0.90937117    -0.62000
O102        O  0.46029309  0.50481738  0.84216546    -0.70400
O103        O  0.53406523  0.50026237  0.84233761    -0.69900
O104        O  0.53513958  0.50472486  0.90899055    -0.61200
O105        O  0.53337290  0.43582537  0.87686909    -0.73700
O106        O  0.53477479  0.57006877  0.87447814    -0.72500
Cu107      Cu  0.45799015  0.50445216  0.87575538     1.04600
Cu108      Cu  0.53695467  0.50276029  0.87566013     1.04300
C109        C  0.49780323  0.59138667  0.87476362     0.93800
C110        C  0.49593438  0.41579506  0.87656035     0.93000
C111        C  0.49855008  0.50457223  0.91974615     0.85100
C112        C  0.49723584  0.50211826  0.83174351     0.91400
O113        O  0.05369294  0.95739335  0.37340233    -0.72400
O114        O  0.91954326  0.95803658  0.37349538    -0.73400
O115        O  0.98584924  0.96012459  0.34012868    -0.62000
O116        O  0.98668118  0.95426108  0.40665928    -0.70400
O117        O  0.98610545  0.02798375  0.40861839    -0.69900
O118        O  0.98817135  0.03390682  0.34158650    -0.61200
O119        O  0.92026924  0.03183526  0.37456994    -0.73700
O120        O  0.05319553  0.03112338  0.37539563    -0.72500
Cu121      Cu  0.98645699  0.95486285  0.37337650     1.04600
Cu122      Cu  0.98686797  0.03378196  0.37511028     1.04300
C123        C  0.07450046  0.99439114  0.37433145     0.93800
C124        C  0.89884965  0.99529439  0.37396394     0.93000
C125        C  0.98741280  0.99784377  0.33036654     0.85100
C126        C  0.98623828  0.98988973  0.41816826     0.91400
O127        O  0.06776177  0.49220906  0.37403117    -0.72400
O128        O  0.93428107  0.48527579  0.37553950    -0.73400
O129        O  0.99986306  0.48690080  0.34136020    -0.62000
O130        O  0.00269397  0.48997678  0.40810464    -0.70400
O131        O  0.99928798  0.56373149  0.40725384    -0.69900
O132        O  0.99292242  0.56046951  0.34028607    -0.61200
O133        O  0.93013845  0.55902361  0.37514855    -0.73700
O134        O  0.06313211  0.56585864  0.37237412    -0.72500
Cu135      Cu  0.00130425  0.48602446  0.37477582     1.04600
Cu136      Cu  0.99631312  0.56486301  0.37372559     1.04300
C137        C  0.08647326  0.53023333  0.37296506     0.93800
C138        C  0.91119858  0.52112151  0.37569328     0.93000
C139        C  0.99536979  0.52302398  0.33032633     0.85100
C140        C  0.00147289  0.52727400  0.41823034     0.91400
O141        O  0.48711289  0.94369003  0.40907036    -0.72400
O142        O  0.48643549  0.93986764  0.34197739    -0.73400
O143        O  0.55343152  0.94132765  0.37543302    -0.62000
O144        O  0.42053627  0.94132293  0.37552008    -0.70400
O145        O  0.41971638  0.01501246  0.37305589    -0.69900
O146        O  0.55374861  0.01517107  0.37546775    -0.61200
O147        O  0.48975285  0.01367359  0.34109020    -0.73700
O148        O  0.48439416  0.01743508  0.40761737    -0.72500
Cu149      Cu  0.48690355  0.93897375  0.37554730     1.04600
Cu150      Cu  0.48683689  0.01792216  0.37427954     1.04300
C151        C  0.48540967  0.98137447  0.41888986     0.93800
C152        C  0.48871250  0.97633120  0.33106012     0.93000
C153        C  0.57464252  0.97800834  0.37545545     0.85100
C154        C  0.39906797  0.97794745  0.37414433     0.91400
O155        O  0.49638847  0.56578729  0.40802173    -0.72400
O156        O  0.49660789  0.56268080  0.34104377    -0.73400
O157        O  0.43008070  0.56066603  0.37430215    -0.62000
O158        O  0.56342664  0.56795417  0.37469054    -0.70400
O159        O  0.56790163  0.49430698  0.37656414    -0.69900
O160        O  0.43471544  0.48695160  0.37451900    -0.61200
O161        O  0.50408331  0.48914729  0.34208566    -0.73700
O162        O  0.49971969  0.49203745  0.40895374    -0.72500
Cu163      Cu  0.49647135  0.56686097  0.37448723     1.04600
Cu164      Cu  0.50166605  0.48803936  0.37556251     1.04300
C165        C  0.49797676  0.52937909  0.41904671     0.93800
C166        C  0.50098795  0.52544443  0.33106792     0.93000
C167        C  0.41136659  0.52261039  0.37420528     0.85100
C168        C  0.58667681  0.53229673  0.37580063     0.91400
O169        O  0.05331375  0.02068285  0.62559115    -0.72400
O170        O  0.91969625  0.01489221  0.62635528    -0.73400
O171        O  0.98831872  0.01335711  0.65915433    -0.62000
O172        O  0.98534404  0.02300045  0.59273983    -0.70400
O173        O  0.98959953  0.94948466  0.58999320    -0.69900
O174        O  0.98933069  0.93961456  0.65697536    -0.61200
O175        O  0.92342136  0.94139985  0.62323711    -0.73700
O176        O  0.05648708  0.94699758  0.62374669    -0.72500
Cu177      Cu  0.98650893  0.02053030  0.62604731     1.04600
Cu178      Cu  0.98987679  0.94177933  0.62338616     1.04300
C179        C  0.07595004  0.98463406  0.62476956     0.93800
C180        C  0.90054487  0.97712549  0.62477131     0.93000
C181        C  0.98913148  0.97522680  0.66855753     0.85100
C182        C  0.98712586  0.98791367  0.58084953     0.91400
O183        O  0.99782371  0.47097354  0.59182999    -0.72400
O184        O  0.99844908  0.47520563  0.65878313    -0.73400
O185        O  0.93141336  0.47131752  0.62567251    -0.62000
O186        O  0.06512753  0.47506784  0.62513953    -0.70400
O187        O  0.06222045  0.54874513  0.62290873    -0.69900
O188        O  0.92905923  0.54512552  0.62528804    -0.61200
O189        O  0.99886756  0.54904780  0.65749209    -0.73700
O190        O  0.99357544  0.54466490  0.59067102    -0.72500
Cu191      Cu  0.99823781  0.47052953  0.62538291     1.04600
Cu192      Cu  0.99572957  0.54943927  0.62403559     1.04300
C193        C  0.99576279  0.50721460  0.58068993     0.93800
C194        C  0.99953561  0.51280218  0.66863874     0.93000
C195        C  0.90918569  0.50766108  0.62583717     0.85100
C196        C  0.08471170  0.51264739  0.62384750     0.91400
O197        O  0.42380228  0.93699985  0.62604539    -0.72400
O198        O  0.55724402  0.94433415  0.62681736    -0.73400
O199        O  0.48925417  0.94324352  0.65994298    -0.62000
O200        O  0.49162454  0.93790582  0.59309935    -0.70400
O201        O  0.48570033  0.01145382  0.59138851    -0.69900
O202        O  0.48792383  0.01708592  0.65837663    -0.61200
O203        O  0.55284264  0.01794527  0.62446268    -0.73700
O204        O  0.41980931  0.01074028  0.62540655    -0.72500
Cu205      Cu  0.49063335  0.93803740  0.62654403     1.04600
Cu206      Cu  0.48634512  0.01687356  0.62485208     1.04300
C207        C  0.40076088  0.97282513  0.62575972     0.93800
C208        C  0.57603143  0.98231777  0.62554156     0.93000
C209        C  0.48872126  0.98099276  0.66965062     0.85100
C210        C  0.48900569  0.97375782  0.58169213     0.91400
O211        O  0.49039159  0.55266296  0.65833480    -0.72400
O212        O  0.49685785  0.54853368  0.59155069    -0.73400
O213        O  0.42751946  0.54525641  0.62346548    -0.62000
O214        O  0.56075028  0.55571622  0.62635948    -0.70400
O215        O  0.56628647  0.48206927  0.62696234    -0.69900
O216        O  0.43345729  0.47173372  0.62557217    -0.61200
O217        O  0.50154473  0.47486366  0.59275032    -0.73700
O218        O  0.49883948  0.47926522  0.65963092    -0.72500
Cu219      Cu  0.49372523  0.55313867  0.62487663     1.04600
Cu220      Cu  0.50023824  0.47443367  0.62627052     1.04300
C221        C  0.49367877  0.51655227  0.66948652     0.93800
C222        C  0.49983987  0.51110916  0.58160196     0.93000
C223        C  0.40950014  0.50686834  0.62428188     0.85100
C224        C  0.58453041  0.52034458  0.62696441     0.91400
C225        C  0.78352698  0.48690996  0.62868529     0.16500
C226        C  0.74089199  0.46854119  0.62972868    -0.32500
C227        C  0.70452714  0.49782654  0.62877435     0.20900
C228        C  0.71016830  0.54345253  0.62701224     0.03100
C229        C  0.75289993  0.56189239  0.62609808    -0.22300
C230        C  0.78934258  0.53252341  0.62691671     0.12300
S231        S  0.83179186  0.45681720  0.62907131    -0.05900
C232        C  0.86028952  0.50616925  0.62676198    -0.09400
C233        C  0.83341930  0.54381322  0.62586964    -0.26000
S234        S  0.66149779  0.57307347  0.62576238    -0.03200
C235        C  0.63338750  0.52334700  0.62753736    -0.16600
C236        C  0.66063058  0.48612503  0.62910238    -0.14600
H237        H  0.73624987  0.43292747  0.63101411     0.20700
H238        H  0.75753418  0.59747351  0.62461549     0.16800
H239        H  0.84546880  0.57757641  0.62437330     0.19300
H240        H  0.64893114  0.45217903  0.63024971     0.12600
C241        C  0.28445234  0.48136602  0.62502222     0.16500
C242        C  0.24217758  0.46197084  0.62621618    -0.32500
C243        C  0.20506606  0.49033567  0.62463442     0.20900
C244        C  0.20986829  0.53591407  0.62199011     0.03100
C245        C  0.25204821  0.55524761  0.62077506    -0.22300
C246        C  0.28907619  0.52695105  0.62236734     0.12300
S247        S  0.33371990  0.45297007  0.62674966    -0.05900
C248        C  0.36072016  0.50312977  0.62391908    -0.09400
C249        C  0.33270868  0.53962706  0.62172005    -0.26000
S250        S  0.16098767  0.56473926  0.62052751    -0.03200
C251        C  0.13356957  0.51490119  0.62345179    -0.16600
C252        C  0.16122614  0.47801770  0.62546923    -0.14600
H253        H  0.23838483  0.42640711  0.62832750     0.20700
H254        H  0.25584236  0.59083220  0.61873894     0.16800
H255        H  0.34367993  0.57369476  0.61985270     0.19300
H256        H  0.14989130  0.44411177  0.62749546     0.12600
C257        C  0.70091808  0.00715482  0.62553828     0.16500
C258        C  0.74307643  0.02675232  0.62619793    -0.32500
C259        C  0.78019630  0.99843100  0.62526373     0.20900
C260        C  0.77556577  0.95266716  0.62360724     0.03100
C261        C  0.73341536  0.93307206  0.62293102    -0.22300
C262        C  0.69630900  0.96136918  0.62402355     0.12300
S263        S  0.65182172  0.03570780  0.62665255    -0.05900
C264        C  0.62478173  0.98538996  0.62528054    -0.09400
C265        C  0.65263539  0.94863853  0.62390416    -0.26000
S266        S  0.82463149  0.92407075  0.62267617    -0.03200
C267        C  0.85174466  0.97428953  0.62461959    -0.16600
C268        C  0.82390326  0.01107698  0.62587376    -0.14600
H269        H  0.74677705  0.06246782  0.62747527     0.20700
H270        H  0.72971270  0.89734568  0.62172165     0.16800
H271        H  0.64154036  0.91448428  0.62286413     0.19300
H272        H  0.83502144  0.04518895  0.62714893     0.12600
C273        C  0.27512950  0.95018063  0.62525479     0.16500
C274        C  0.23249212  0.93153615  0.62456421    -0.32500
C275        C  0.19595799  0.96074588  0.62509327     0.20900
C276        C  0.20157825  0.00643592  0.62635599     0.03100
C277        C  0.24417815  0.02505184  0.62707460    -0.22300
C278        C  0.28068535  0.99588549  0.62643431     0.12300
S279        S  0.32376035  0.92058282  0.62460816    -0.05900
C280        C  0.35186116  0.97036690  0.62581988    -0.09400
C281        C  0.32462816  0.00767262  0.62674580    -0.26000
S282        S  0.15310170  0.03621101  0.62677577    -0.03200
C283        C  0.12485630  0.98660262  0.62513941    -0.16600
C284        C  0.15194731  0.94913734  0.62439580    -0.14600
H285        H  0.22799500  0.89588116  0.62357325     0.20700
H286        H  0.24867476  0.06071523  0.62799809     0.16800
H287        H  0.33635134  0.04163606  0.62757391     0.19300
H288        H  0.14008833  0.91524276  0.62338543     0.12600
C289        C  0.49685222  0.54887352  0.48225068     0.16500
C290        C  0.49510049  0.56654109  0.50380193    -0.32500
C291        C  0.49857921  0.53675218  0.52174140     0.20900
C292        C  0.50371785  0.49138277  0.51842523     0.03100
C293        C  0.50554718  0.47370723  0.49686097    -0.22300
C294        C  0.50188027  0.50349779  0.47891013     0.12300
S295        S  0.49303759  0.57942722  0.45830189    -0.05900
C296        C  0.49805501  0.53053342  0.44357865    -0.09400
C297        C  0.50254626  0.49275877  0.45674234    -0.26000
S298        S  0.50688740  0.46086186  0.54242603    -0.03200
C299        C  0.50109299  0.50976832  0.55708835    -0.16600
C300        C  0.49712713  0.54750494  0.54388048    -0.14600
H301        H  0.49103810  0.60193860  0.50647295     0.20700
H302        H  0.50944009  0.43829210  0.49419093     0.16800
H303        H  0.50620281  0.45922755  0.45043109     0.19300
H304        H  0.49305664  0.58102924  0.55014186     0.12600
C305        C  0.49338844  0.95050227  0.51884153     0.16500
C306        C  0.49604163  0.93138883  0.49760852    -0.32500
C307        C  0.49013010  0.95950555  0.47914867     0.20900
C308        C  0.48219083  0.00469173  0.48171144     0.03100
C309        C  0.47956211  0.02381024  0.50294082    -0.22300
C310        C  0.48529203  0.99565909  0.52140062     0.12300
S311        S  0.49891166  0.92195413  0.54330722    -0.05900
C312        C  0.48992361  0.97130604  0.55718546    -0.09400
C313        C  0.48342961  0.00785050  0.54337768    -0.26000
S314        S  0.47646861  0.03321407  0.45726083    -0.03200
C315        C  0.48477084  0.98374251  0.44338454    -0.16600
C316        C  0.49145539  0.94721961  0.45717219    -0.14600
H317        H  0.50228584  0.89612819  0.49557076     0.20700
H318        H  0.47324906  0.05905951  0.50497811     0.16800
H319        H  0.47723178  0.04144011  0.54910434     0.19300
H320        H  0.49742000  0.91359845  0.45143149     0.12600
C321        C  0.00134423  0.48786656  0.51747981     0.16500
C322        C  0.00453621  0.47044918  0.49589550    -0.32500
C323        C  0.00317294  0.50058772  0.47800979     0.20900
C324        C  0.99904798  0.54602316  0.48143876     0.03100
C325        C  0.99601263  0.56341828  0.50300277    -0.22300
C326        C  0.99715738  0.53330544  0.52086935     0.12300
S327        S  0.00204780  0.45701443  0.54142605    -0.05900
C328        C  0.99660699  0.50589961  0.55615700    -0.09400
C329        C  0.99442847  0.54384221  0.54300359    -0.26000
S330        S  0.99739017  0.57699514  0.45757345    -0.03200
C331        C  0.00204542  0.52821710  0.44275152    -0.16600
C332        C  0.00497804  0.49015807  0.45582238    -0.14600
H333        H  0.00769132  0.43498498  0.49315825     0.20700
H334        H  0.99265127  0.59886647  0.50573412     0.16800
H335        H  0.99122280  0.57742489  0.54930613     0.19300
H336        H  0.00779562  0.45661018  0.44943041     0.12600
C337        C  0.78573424  0.49902879  0.37817420     0.16500
C338        C  0.74315705  0.48046738  0.37926380    -0.32500
C339        C  0.70664228  0.50953237  0.37779375     0.20900
C340        C  0.71214805  0.55508144  0.37544600     0.03100
C341        C  0.75474156  0.57368115  0.37447958    -0.22300
C342        C  0.79126775  0.54458295  0.37586942     0.12300
S343        S  0.83427949  0.46934929  0.37917687    -0.05900
C344        C  0.86236568  0.51885459  0.37647214    -0.09400
C345        C  0.83520159  0.55618183  0.37495496    -0.26000
S346        S  0.66353252  0.58454220  0.37370814    -0.03200
C347        C  0.63551201  0.53491675  0.37613966    -0.16600
C348        C  0.66273644  0.49776454  0.37821383    -0.14600
H349        H  0.73867870  0.44490996  0.38101198     0.20700
H350        H  0.75921798  0.60920946  0.37258227     0.16800
H351        H  0.84696376  0.58998136  0.37309647     0.19300
H352        H  0.65102971  0.46390203  0.37985583     0.12600
C353        C  0.21179880  0.55417740  0.37205928     0.16500
C354        C  0.25419090  0.57336529  0.37173185    -0.32500
C355        C  0.29106770  0.54462652  0.37262327     0.20900
C356        C  0.28602925  0.49883907  0.37371941     0.03100
C357        C  0.24365369  0.47966612  0.37403694    -0.22300
C358        C  0.20678917  0.50839111  0.37320585     0.12300
S359        S  0.16285096  0.58322426  0.37129739    -0.05900
C360        C  0.13533158  0.53312234  0.37256607    -0.09400
C361        C  0.16298281  0.49610339  0.37350007    -0.26000
S362        S  0.33490930  0.46973206  0.37473158    -0.03200
C363        C  0.36249971  0.51978901  0.37375843    -0.16600
C364        C  0.33490682  0.55686531  0.37264837    -0.14600
H365        H  0.25825271  0.60910251  0.37089516     0.20700
H366        H  0.23959128  0.44393716  0.37495503     0.16800
H367        H  0.15164594  0.46201172  0.37444330     0.19300
H368        H  0.34630625  0.59095802  0.37193859     0.12600
C369        C  0.98429793  0.96310750  0.48061971     0.16500
C370        C  0.98344889  0.94251682  0.50156128    -0.32500
C371        C  0.98467789  0.96995944  0.52036903     0.20900
C372        C  0.98641953  0.01590571  0.51843253     0.03100
C373        C  0.98718908  0.03653507  0.49746428    -0.22300
C374        C  0.98615895  0.00904478  0.47863375     0.12300
S375        S  0.98351589  0.93551945  0.45587436    -0.05900
C376        C  0.98574744  0.98635864  0.44261269    -0.09400
C377        C  0.98696559  0.02265218  0.45681030    -0.26000
S378        S  0.98782360  0.04324706  0.54328589    -0.03200
C379        C  0.98637778  0.99220559  0.55642854    -0.16600
C380        C  0.98466624  0.95613620  0.54213399    -0.14600
H381        H  0.98211131  0.90665259  0.50312333     0.20700
H382        H  0.98869350  0.07239003  0.49590189     0.16800
H383        H  0.98847236  0.05704635  0.45146827     0.19300
H384        H  0.98355567  0.92166182  0.54737597     0.12600
C385        C  0.77275145  0.01547734  0.37404655     0.16500
C386        C  0.72969498  0.03355282  0.37435618    -0.32500
C387        C  0.69392098  0.00382322  0.37460987     0.20900
C388        C  0.70070133  0.95814554  0.37447243     0.03100
C389        C  0.74373981  0.94008002  0.37410869    -0.22300
C390        C  0.77950552  0.96979686  0.37393741     0.12300
S391        S  0.82050377  0.04587567  0.37396831    -0.05900
C392        C  0.84992720  0.99651497  0.37384620    -0.09400
C393        C  0.82376477  0.95868369  0.37379650    -0.26000
S394        S  0.65302421  0.92768377  0.37485172    -0.03200
C395        C  0.62355246  0.97699062  0.37526533    -0.16600
C396        C  0.64964382  0.01487985  0.37505918    -0.14600
H397        H  0.72432505  0.06920209  0.37448473     0.20700
H398        H  0.74911058  0.90442936  0.37404408     0.16800
H399        H  0.83642999  0.92488869  0.37377292     0.19300
H400        H  0.63692236  0.04865133  0.37519828     0.12600
C401        C  0.27323689  0.95781496  0.37558630     0.16500
C402        C  0.23046089  0.93973835  0.37706331    -0.32500
C403        C  0.19421735  0.96905293  0.37526432     0.20900
C404        C  0.20031731  0.01437068  0.37221188     0.03100
C405        C  0.24309533  0.03243881  0.37069191    -0.22300
C406        C  0.27933762  0.00311006  0.37245628     0.12300
S407        S  0.32138647  0.92783139  0.37743726    -0.05900
C408        C  0.35014855  0.97682752  0.37401967    -0.09400
C409        C  0.32347634  0.01426882  0.37153244    -0.26000
S410        S  0.15216257  0.04441062  0.37063401    -0.03200
C411        C  0.12341270  0.99538745  0.37399867    -0.16600
C412        C  0.15007948  0.95788956  0.37622468    -0.14600
H413        H  0.22565206  0.90438942  0.37951576     0.20700
H414        H  0.24790742  0.06780133  0.36828994     0.16800
H415        H  0.33569201  0.04779922  0.36925427     0.19300
H416        H  0.13786047  0.92436724  0.37852637     0.12600
C417        C  0.51223655  0.48740558  0.76893588     0.16500
C418        C  0.52550683  0.47440763  0.74757997    -0.32500
C419        C  0.50619120  0.49655490  0.72939019     0.20900
C420        C  0.47550750  0.53066695  0.73228006     0.03100
C421        C  0.46137655  0.54294203  0.75366099    -0.22300
C422        C  0.48022062  0.52027050  0.77187853     0.12300
S423        S  0.53337250  0.46597729  0.79309447    -0.05900
C424        C  0.49778645  0.50065996  0.80733118    -0.09400
C425        C  0.47120446  0.52750891  0.79396854    -0.26000
S426        S  0.45790780  0.55492446  0.70800887    -0.03200
C427        C  0.49125837  0.51776872  0.69389563    -0.16600
C428        C  0.51484958  0.48857647  0.70738414    -0.14600
H429        H  0.55013152  0.44842246  0.74524599     0.20700
H430        H  0.43706924  0.56921762  0.75600017     0.16800
H431        H  0.44755274  0.55181560  0.80011219     0.19300
H432        H  0.53759631  0.46327045  0.70138881     0.12600
C433        C  0.52615646  0.01023210  0.76777450     0.16500
C434        C  0.54013892  0.01762546  0.74581457    -0.32500
C435        C  0.51349457  0.00084587  0.72856906     0.20900
C436        C  0.47511713  0.97696154  0.73298234     0.03100
C437        C  0.46072533  0.97028920  0.75490786    -0.22300
C438        C  0.48690764  0.98780008  0.77211726     0.12300
S439        S  0.55419786  0.02697743  0.79108845    -0.05900
C440        C  0.51189812  0.00467451  0.80678672    -0.09400
C441        C  0.47828999  0.98500072  0.79445956    -0.26000
S442        S  0.44859396  0.95743820  0.70981152    -0.03200
C443        C  0.48887052  0.98285068  0.69403813    -0.16600
C444        C  0.52120087  0.00489527  0.70615374    -0.14600
H445        H  0.57048125  0.03558511  0.74232342     0.20700
H446        H  0.43049143  0.95214645  0.75840664     0.16800
H447        H  0.44944243  0.96881152  0.80151377     0.19300
H448        H  0.54917777  0.02226217  0.69893132     0.12600
C449        C  0.53380832  0.78981395  0.87168198     0.16500
C450        C  0.55230489  0.74691254  0.87151359    -0.32500
C451        C  0.52297589  0.71084516  0.87247323     0.20900
C452        C  0.47728102  0.71726663  0.87338927     0.03100
C453        C  0.45879607  0.76011408  0.87343458    -0.22300
C454        C  0.48810916  0.79613654  0.87263608     0.12300
S455        S  0.56370271  0.83787180  0.87127784    -0.05900
C456        C  0.51410687  0.86677642  0.87257669    -0.09400
C457        C  0.47656420  0.84026054  0.87307566    -0.26000
S458        S  0.44729511  0.66943022  0.87468834    -0.03200
C459        C  0.49679877  0.64028671  0.87406860    -0.16600
C460        C  0.53444120  0.66661689  0.87284844    -0.14600
H461        H  0.58798033  0.74188415  0.87088803     0.20700
H462        H  0.42313666  0.76514965  0.87427244     0.16800
H463        H  0.44269622  0.85257441  0.87401569     0.19300
H464        H  0.56827621  0.65411692  0.87232913     0.12600
C465        C  0.52979392  0.21676608  0.88128271     0.16500
C466        C  0.54815883  0.25941152  0.88278555    -0.32500
C467        C  0.51938335  0.29586688  0.88009770     0.20900
C468        C  0.47422758  0.29011673  0.87634519     0.03100
C469        C  0.45579844  0.24744727  0.87500454    -0.22300
C470        C  0.48466140  0.21096119  0.87747025     0.12300
S471        S  0.55947504  0.16845364  0.88318164    -0.05900
C472        C  0.51067787  0.13997095  0.87862256    -0.09400
C473        C  0.47339269  0.16686359  0.87604920    -0.26000
S474        S  0.44499248  0.33854118  0.87334484    -0.03200
C475        C  0.49414850  0.36689189  0.87704769    -0.16600
C476        C  0.53106900  0.33989794  0.88048297    -0.14600
H477        H  0.58343709  0.26396211  0.88562127     0.20700
H478        H  0.42060696  0.24289839  0.87191269     0.16800
H479        H  0.44005643  0.15485894  0.87291368     0.19300
H480        H  0.56460730  0.35182380  0.88311839     0.12600
C481        C  0.02014710  0.52794229  0.73113990     0.16500
C482        C  0.03565832  0.54047143  0.75224418    -0.32500
C483        C  0.01951413  0.51702523  0.77073985     0.20900
C484        C  0.98850158  0.48332176  0.76836503     0.03100
C485        C  0.97375819  0.47014843  0.74724273    -0.22300
C486        C  0.99065390  0.49292140  0.72872809     0.12300
S487        S  0.03511897  0.55262547  0.70665113    -0.05900
C488        C  0.00250607  0.51438491  0.69302276    -0.09400
C489        C  0.98093175  0.48453153  0.70682933    -0.26000
S490        S  0.97095733  0.46074127  0.79289687    -0.03200
C491        C  0.00696576  0.49591832  0.80643039    -0.16600
C492        C  0.03081761  0.52393317  0.79260427    -0.14600
H493        H  0.05923443  0.56731564  0.75416178     0.20700
H494        H  0.95010315  0.44337085  0.74532748     0.16800
H495        H  0.95906152  0.45837174  0.70113476     0.19300
H496        H  0.05432989  0.54863020  0.79829490     0.12600
C497        C  0.97784515  0.95887442  0.73160210     0.16500
C498        C  0.96557512  0.94616417  0.75321693    -0.32500
C499        C  0.98119120  0.97209222  0.77097898     0.20900
C500        C  0.00875306  0.00830344  0.76740440     0.03100
C501        C  0.02042549  0.02137246  0.74582929    -0.22300
C502        C  0.00392828  0.99616260  0.72808751     0.12300
S503        S  0.96215215  0.93225953  0.70772385    -0.05900
C504        C  0.98971405  0.97279537  0.69296036    -0.09400
C505        C  0.01043434  0.00456800  0.70594925    -0.26000
S506        S  0.02633265  0.03401610  0.79109258    -0.03200
C507        C  0.99506497  0.99657547  0.80594227    -0.16600
C508        C  0.97262376  0.96558858  0.79317288    -0.14600
H509        H  0.94461450  0.91752224  0.75605377     0.20700
H510        H  0.04132534  0.05006530  0.74298798     0.16800
H511        H  0.02912775  0.03246395  0.69949353     0.19300
H512        H  0.95228096  0.93907456  0.79981709     0.12600
C513        C  0.03414105  0.71034424  0.87404620     0.16500
C514        C  0.05185556  0.75333379  0.87379967    -0.32500
C515        C  0.02187453  0.78915641  0.87389141     0.20900
C516        C  0.97624671  0.78252651  0.87419096     0.03100
C517        C  0.95850177  0.73949000  0.87441193    -0.22300
C518        C  0.98852311  0.70363011  0.87435150     0.12300
S519        S  0.06503619  0.66265672  0.87402894    -0.05900
C520        C  0.01601738  0.63320662  0.87444483    -0.09400
C521        C  0.97787258  0.65933186  0.87459109    -0.26000
S522        S  0.94553942  0.83040639  0.87436391    -0.03200
C523        C  0.99473052  0.85965821  0.87406288    -0.16600
C524        C  0.03270219  0.83336172  0.87378963    -0.14600
H525        H  0.08746396  0.75862580  0.87358237     0.20700
H526        H  0.92289576  0.73419825  0.87466307     0.16800
H527        H  0.94422696  0.64662487  0.87483898     0.19300
H528        H  0.06641563  0.84589848  0.87360224     0.12600
C529        C  0.97867847  0.21069671  0.87543790     0.16500
C530        C  0.96118348  0.25395533  0.87610149    -0.32500
C531        C  0.99127888  0.28939427  0.87543795     0.20900
C532        C  0.03680761  0.28216263  0.87418428     0.03100
C533        C  0.05433244  0.23886279  0.87356606    -0.22300
C534        C  0.02420266  0.20339155  0.87421700     0.12300
S535        S  0.94764861  0.16334686  0.87595523    -0.05900
C536        C  0.99649314  0.13324814  0.87451818    -0.09400
C537        C  0.03466041  0.15894699  0.87371421    -0.26000
S538        S  0.06765471  0.32968327  0.87341627    -0.03200
C539        C  0.01866154  0.35961340  0.87479234    -0.16600
C540        C  0.98066070  0.33376172  0.87581852    -0.14600
H541        H  0.92564776  0.25973999  0.87704560     0.20700
H542        H  0.08986217  0.23307972  0.87257516     0.16800
H543        H  0.06822639  0.14583167  0.87276937     0.19300
H544        H  0.94703175  0.34673027  0.87671932     0.12600
C545        C  0.54446943  0.49863149  0.23346095     0.16500
C546        C  0.55688077  0.49018001  0.25560929    -0.32500
C547        C  0.52932836  0.50703179  0.27247061     0.20900
C548        C  0.49167620  0.53209930  0.26753123     0.03100
C549        C  0.47882150  0.53980296  0.24540191    -0.22300
C550        C  0.50582424  0.52212364  0.22855525     0.12300
S551        S  0.57352410  0.48149870  0.21056147    -0.05900
C552        C  0.53237279  0.50495795  0.19425273    -0.09400
C553        C  0.49843432  0.52537114  0.20608558    -0.26000
S554        S  0.46394828  0.55156950  0.29034718    -0.03200
C555        C  0.50262641  0.52440602  0.30666959    -0.16600
C556        C  0.53537494  0.50189917  0.29497541    -0.14600
H557        H  0.58664940  0.47125316  0.25952732     0.20700
H558        H  0.44905611  0.55873688  0.24148256     0.16800
H559        H  0.47001207  0.54198648  0.19861297     0.19300
H560        H  0.56255138  0.48350105  0.30256683     0.12600
C561        C  0.54593449  0.49605759  0.01809079     0.16500
C562        C  0.56158191  0.49634953  0.99611322    -0.32500
C563        C  0.52999779  0.49985336  0.97892852     0.20900
C564        C  0.48483996  0.50282110  0.98337616     0.03100
C565        C  0.46920556  0.50247364  0.00534103    -0.22300
C566        C  0.50077044  0.49902624  0.02252004     0.12300
S567        S  0.57878702  0.49274983  0.04133122    -0.05900
C568        C  0.53113044  0.49544216  0.05719399    -0.09400
C569        C  0.49208371  0.49855814  0.04490145    -0.26000
S570        S  0.45191933  0.50654762  0.96018962    -0.03200
C571        C  0.49950138  0.50409646  0.94429237    -0.16600
C572        C  0.53861285  0.50066736  0.95653477    -0.14600
H573        H  0.59682435  0.49407470  0.99256156     0.20700
H574        H  0.43396970  0.50484608  0.00889308     0.16800
H575        H  0.45905032  0.50090369  0.05197686     0.19300
H576        H  0.57162330  0.49851376  0.94941815     0.12600
C577        C  0.47791775  0.96677091  0.26783286     0.16500
C578        C  0.46458508  0.95799282  0.24592456    -0.32500
C579        C  0.48832709  0.97854939  0.22871227     0.20900
C580        C  0.52437045  0.00587010  0.23306622     0.03100
C581        C  0.53706166  0.01547927  0.25498020    -0.22300
C582        C  0.51271550  0.99565126  0.27219518     0.12300
S583        S  0.45392781  0.94448954  0.29104476    -0.05900
C584        C  0.49014005  0.97563654  0.30671128    -0.09400
C585        C  0.51942401  0.00141112  0.29454594    -0.26000
S586        S  0.55046343  0.02542903  0.20984489    -0.03200
C587        C  0.51146238  0.99770003  0.19416817    -0.16600
C588        C  0.48030980  0.97431623  0.20636788    -0.14600
H589        H  0.43698722  0.93604428  0.24244520     0.20700
H590        H  0.56473166  0.03734312  0.25845848     0.16800
H591        H  0.54444231  0.02291454  0.30171161     0.19300
H592        H  0.45388860  0.95450295  0.19924270     0.12600
C593        C  0.48563928  0.99861455  0.98205474     0.16500
C594        C  0.46628518  0.99918297  0.00325329    -0.32500
C595        C  0.49487677  0.99904998  0.02172027     0.20900
C596        C  0.54072840  0.99829948  0.01919326     0.03100
C597        C  0.56010352  0.99766705  0.99797982    -0.22300
C598        C  0.53148553  0.99789047  0.97949726     0.12300
S599        S  0.45660113  0.99920637  0.95764340    -0.05900
C600        C  0.50669330  0.99866341  0.94374691    -0.09400
C601        C  0.54382676  0.99784767  0.95750838    -0.26000
S602        S  0.56964288  0.99829864  0.04366398    -0.03200
C603        C  0.51944189  0.99929229  0.05747847    -0.16600
C604        C  0.48242011  0.99963340  0.04366925    -0.14600
H605        H  0.43049248  0.99983971  0.00525900     0.20700
H606        H  0.59589737  0.99716278  0.99597482     0.16800
H607        H  0.57794182  0.99760558  0.95175201     0.19300
H608        H  0.44826792  0.00020948  0.04936888     0.12600
C609        C  0.49543180  0.78497292  0.12565759     0.16500
C610        C  0.47756173  0.74201774  0.12593416    -0.32500
C611        C  0.50727770  0.70610228  0.12429652     0.20900
C612        C  0.55276066  0.71263301  0.12242310     0.03100
C613        C  0.57062177  0.75561307  0.12208108    -0.22300
C614        C  0.54091547  0.79154903  0.12379850     0.12300
S615        S  0.46494144  0.83279512  0.12745314    -0.05900
C616        C  0.51395813  0.86208538  0.12566963    -0.09400
C617        C  0.55180449  0.83580501  0.12386992    -0.26000
S618        S  0.58327937  0.66470690  0.12108404    -0.03200
C619        C  0.53426618  0.63551720  0.12316442    -0.16600
C620        C  0.49641779  0.66188659  0.12463140    -0.14600
H621        H  0.44207115  0.73682064  0.12745179     0.20700
H622        H  0.60612844  0.76080238  0.12066840     0.16800
H623        H  0.58538730  0.84838460  0.12250497     0.19300
H624        H  0.46283634  0.64939043  0.12620234     0.12600
C625        C  0.49309504  0.21308232  0.12732779     0.16500
C626        C  0.47536113  0.25631627  0.12736625    -0.32500
C627        C  0.50536237  0.29187302  0.12815054     0.20900
C628        C  0.55095832  0.28469241  0.12895754     0.03100
C629        C  0.56866375  0.24149853  0.12899708    -0.22300
C630        C  0.53870022  0.20598203  0.12810434     0.12300
S631        S  0.46241724  0.16550192  0.12620878    -0.05900
C632        C  0.51158841  0.13572787  0.12673092    -0.09400
C633        C  0.54952533  0.16166414  0.12776241    -0.26000
S634        S  0.58183192  0.33211053  0.12945117    -0.03200
C635        C  0.53283251  0.36207635  0.12844115    -0.16600
C636        C  0.49471800  0.33629284  0.12791596    -0.14600
H637        H  0.43977682  0.26199019  0.12666948     0.20700
H638        H  0.60426063  0.23582889  0.12953858     0.16800
H639        H  0.58323584  0.14879224  0.12823571     0.19300
H640        H  0.46109252  0.34932372  0.12712008     0.12600
C641        C  0.01493440  0.48477431  0.23182085     0.16500
C642        C  0.02888008  0.47443892  0.25350895    -0.32500
C643        C  0.00832120  0.49709527  0.27110442     0.20900
C644        C  0.97570654  0.52906290  0.26730310     0.03100
C645        C  0.96086896  0.53849856  0.24563736    -0.22300
C646        C  0.98107159  0.51543300  0.22804515     0.12300
S647        S  0.03741708  0.46274551  0.20819370    -0.05900
C648        C  0.99994711  0.49419846  0.19310670    -0.09400
C649        C  0.97179818  0.52042533  0.20581338    -0.26000
S650        S  0.95697440  0.55481584  0.29084366    -0.03200
C651        C  0.99261328  0.52128769  0.30594190    -0.16600
C652        C  0.01761358  0.49195893  0.29330660    -0.14600
H653        H  0.05502638  0.45022836  0.25652259     0.20700
H654        H  0.93512800  0.56312831  0.24260386     0.16800
H655        H  0.94680901  0.54284740  0.19909627     0.19300
H656        H  0.04186033  0.46871441  0.30000804     0.12600
C657        C  0.98130478  0.49964062  0.01746139     0.16500
C658        C  0.96450732  0.50302854  0.99576828    -0.32500
C659        C  0.99481013  0.49947876  0.97816814     0.20900
C660        C  0.03992715  0.49300632  0.98189123     0.03100
C661        C  0.05678306  0.48967281  0.00363323    -0.22300
C662        C  0.02639893  0.49312488  0.02127148     0.12300
S663        S  0.94984790  0.50280453  0.04102296    -0.05900
C664        C  0.99794004  0.49532932  0.05625068    -0.09400
C665        C  0.03616697  0.49067903  0.04354062    -0.26000
S666        S  0.07098424  0.48942841  0.95812479    -0.03200
C667        C  0.02251877  0.49648483  0.94308644    -0.16600
C668        C  0.98466139  0.50147420  0.95598792    -0.14600
H669        H  0.92930614  0.50806106  0.99273039     0.20700
H670        H  0.09196428  0.48452245  0.00666964     0.16800
H671        H  0.06932162  0.48574183  0.05023607     0.19300
H672        H  0.95133062  0.50618967  0.94946974     0.12600
C673        C  0.97266095  0.96960490  0.23076772     0.16500
C674        C  0.95922395  0.95555127  0.25197168    -0.32500
C675        C  0.97667717  0.97814103  0.27040954     0.20900
C676        C  0.00568090  0.01353587  0.26784684     0.03100
C677        C  0.02006407  0.02673889  0.24668971    -0.22300
C678        C  0.00313932  0.00377089  0.22827636     0.12300
S679        S  0.95335964  0.94840723  0.20625620    -0.05900
C680        C  0.98774937  0.98505294  0.19262406    -0.09400
C681        C  0.01256536  0.01223408  0.20637237    -0.26000
S682        S  0.02119295  0.03823586  0.29218962    -0.03200
C683        C  0.98938776  0.99963756  0.30599549    -0.16600
C684        C  0.96773387  0.96953784  0.29235795    -0.14600
H685        H  0.93581182  0.92858472  0.25399766     0.20700
H686        H  0.04307475  0.05404372  0.24465512     0.16800
H687        H  0.03505576  0.03781320  0.20061170     0.19300
H688        H  0.94630811  0.94312724  0.29820286     0.12600
C689        C  0.02267042  0.99831263  0.98097750     0.16500
C690        C  0.04172274  0.99865900  0.00231556    -0.32500
C691        C  0.01279911  0.99986111  0.02059377     0.20900
C692        C  0.96700052  0.00093670  0.01771341     0.03100
C693        C  0.94799346  0.00069115  0.99640619    -0.22300
C694        C  0.97685904  0.99924096  0.97815727     0.12300
S695        S  0.05189674  0.99653088  0.95668973    -0.05900
C696        C  0.00184651  0.99698346  0.94259155    -0.09400
C697        C  0.96467882  0.99845334  0.95616185    -0.26000
S698        S  0.93749393  0.00171545  0.04187823    -0.03200
C699        C  0.98730104  0.00020472  0.05612353    -0.16600
C700        C  0.02472085  0.99949429  0.04266471    -0.14600
H701        H  0.07747626  0.99774822  0.00456718     0.20700
H702        H  0.91223317  0.00132427  0.99415693     0.16800
H703        H  0.93059898  0.99899821  0.95026200     0.19300
H704        H  0.05870132  0.99825821  0.04868449     0.12600
C705        C  0.02482650  0.70766827  0.12350102     0.16500
C706        C  0.04265396  0.75067083  0.12306422    -0.32500
C707        C  0.01268523  0.78661190  0.12226809     0.20900
C708        C  0.96704683  0.78010885  0.12186188     0.03100
C709        C  0.94926015  0.73717542  0.12226390    -0.22300
C710        C  0.97917731  0.70129670  0.12312489     0.12300
S711        S  0.05533286  0.65951371  0.12449590    -0.05900
C712        C  0.00596847  0.63060103  0.12436843    -0.09400
C713        C  0.96819016  0.65723046  0.12365620    -0.26000
S714        S  0.93626811  0.82798321  0.12124163    -0.03200
C715        C  0.98539574  0.85718984  0.12167243    -0.18200
C716        C  0.02342581  0.83083364  0.12210651    -0.14600
H717        H  0.07826716  0.75589738  0.12341696     0.20700
H718        H  0.91363996  0.73195362  0.12201328     0.16800
H719        H  0.93436703  0.64497591  0.12342808     0.19300
H720        H  0.05713309  0.84336408  0.12257907     0.12600
C721        C  0.96538162  0.28172012  0.12711568     0.16500
C722        C  0.94522160  0.23985054  0.12864127    -0.32500
C723        C  0.97293404  0.20221190  0.12777468     0.20900
C724        C  0.01867170  0.20615858  0.12556596     0.03100
C725        C  0.03880513  0.24797090  0.12404906    -0.22300
C726        C  0.01111247  0.28555367  0.12486255     0.12300
S727        S  0.93767270  0.33138784  0.12782340    -0.05900
C728        C  0.98825932  0.35760579  0.12513072    -0.09400
C729        C  0.02445792  0.32901835  0.12369709    -0.26000
S730        S  0.04653973  0.15671817  0.12462110    -0.03200
C731        C  0.99605844  0.13023419  0.12704518    -0.16600
C732        C  0.95969473  0.15860880  0.12865043    -0.14600
H733        H  0.90951528  0.23675502  0.13035682     0.20700
H734        H  0.07450077  0.25106393  0.12225952     0.16800
H735        H  0.05871426  0.33946476  0.12198633     0.19300
H736        H  0.92546963  0.14794172  0.13013772     0.12600
loop_ 
_geom_bond_atom_site_label_1 
_geom_bond_atom_site_label_2 
_geom_bond_distance 
_geom_bond_site_symmetry_2 
_ccdc_geom_bond_type 
O1           Cu9   2.003       .  S
O1           C11   1.277   1_455  A
O2           Cu9   1.994   1_545  S
O2           C12   1.275   1_455  A
O3           Cu9   2.018       .  S
O3           C13   1.279   1_455  A
O4           Cu9   2.019       .  S
O4           C14   1.279   1_455  A
O5          Cu10   1.998       .  S
O5           C14   1.276       .  A
O6          Cu10   1.999       .  S
O6           C13   1.275       .  A
O7          Cu10   2.025   1_545  S
O7           C12   1.280       .  A
O8          Cu10   2.014       .  S
O8           C11   1.279       .  A
Cu9         Cu10   2.375   1_455  S
C11         C715   1.471       .  S
C12         C731   1.472       .  S
C13         C680   1.464       .  S
C14         C699   1.471   1_565  S
O15         Cu23   2.013       .  S
O15          C25   1.278       .  A
O16         Cu23   2.013       .  S
O16          C26   1.278       .  A
O17         Cu23   2.006       .  S
O17          C27   1.277       .  A
O18         Cu23   1.995       .  S
O18          C28   1.276   1_655  A
O19         Cu24   2.023       .  S
O19          C28   1.279       .  A
O20         Cu24   2.013       .  S
O20          C27   1.279   1_455  A
O21         Cu24   2.006       .  S
O21          C26   1.277   1_455  A
O22         Cu24   2.007       .  S
O22          C25   1.277   1_455  A
Cu23        Cu24   2.374   1_655  S
C25         C648   1.468       .  S
C26         C664   1.472       .  S
C27         C728   1.472       .  S
C28         C712   1.472       .  S
O29         Cu37   2.001       .  S
O29          C39   1.276       .  A
O30         Cu37   2.000       .  S
O30          C40   1.276       .  A
O31         Cu37   2.013   1_545  S
O31          C41   1.279       .  A
O32         Cu37   2.021       .  S
O32          C42   1.280       .  A
O33         Cu38   1.998       .  S
O33          C42   1.276       .  A
O34         Cu38   2.006   1_545  S
O34          C41   1.277       .  A
O35         Cu38   2.019       .  S
O35          C40   1.279       .  A
O36         Cu38   2.014       .  S
O36          C39   1.278       .  A
Cu37        Cu38   2.375       .  S
C39         C587   1.465       .  S
C40         C603   1.472       .  S
C41         C632   1.472       .  S
C42         C616   1.472       .  S
O43         Cu51   2.020       .  S
O43          C53   1.279       .  A
O44         Cu51   2.020       .  S
O44          C54   1.279       .  A
O45         Cu51   2.001       .  S
O45          C55   1.276       .  A
O46         Cu51   2.007       .  S
O46          C56   1.277       .  A
O47         Cu52   2.010       .  S
O47          C56   1.278       .  A
O48         Cu52   2.019       .  S
O48          C55   1.279       .  A
O49         Cu52   2.007       .  S
O49          C54   1.277       .  A
O50         Cu52   2.007       .  S
O50          C53   1.278       .  A
Cu51        Cu52   2.374       .  S
C53         C568   1.475       .  S
C54         C552   1.472       .  S
C55         C635   1.472       .  S
C56         C619   1.471       .  S
O57         Cu65   2.018       .  S
O57          C67   1.280   1_455  A
O58         Cu65   2.012   1_545  S
O58          C68   1.278   1_455  A
O59         Cu65   1.998       .  S
O59          C69   1.276   1_455  A
O60         Cu65   1.998       .  S
O60          C70   1.275   1_455  A
O61         Cu66   2.019       .  S
O61          C70   1.279       .  A
O62         Cu66   2.018       .  S
O62          C69   1.280       .  A
O63         Cu66   2.008   1_545  S
O63          C68   1.277       .  A
O64         Cu66   1.998       .  S
O64          C67   1.276       .  A
Cu65        Cu66   2.375   1_455  S
C67         C523   1.471       .  S
C68         C536   1.472       .  S
C69         C696   1.471   1_655  S
C70         C507   1.463       .  S
O71         Cu79   2.021       .  S
O71          C81   1.279       .  A
O72         Cu79   2.021       .  S
O72          C82   1.279       .  A
O73         Cu79   1.998       .  S
O73          C83   1.276       .  A
O74         Cu79   2.008       .  S
O74          C84   1.277       .  A
O75         Cu80   2.012       .  S
O75          C84   1.279   1_655  A
O76         Cu80   2.018       .  S
O76          C83   1.279   1_655  A
O77         Cu80   2.001       .  S
O77          C82   1.276   1_655  A
O78         Cu80   1.998       .  S
O78          C81   1.277   1_655  A
Cu79        Cu80   2.374   1_455  S
C81         C667   1.472       .  S
C82         C491   1.467       .  S
C83         C520   1.471       .  S
C84         C539   1.472       .  S
O85         Cu93   1.996       .  S
O85          C95   1.276       .  A
O86         Cu93   2.000   1_565  S
O86          C96   1.276       .  A
O87         Cu93   2.022       .  S
O87          C97   1.279       .  A
O88         Cu93   2.021       .  S
O88          C98   1.279   1_545  A
O89         Cu94   2.001       .  S
O89          C98   1.276   1_545  A
O90         Cu94   2.003       .  S
O90          C97   1.277       .  A
O91         Cu94   2.014   1_565  S
O91          C96   1.279       .  A
O92         Cu94   2.024       .  S
O92          C95   1.280       .  A
Cu93        Cu94   2.374       .  S
C95         C472   1.472       .  S
C96         C456   1.470       .  S
C97         C440   1.472       .  S
C98         C600   1.473       .  S
O99        Cu107   1.991       .  S
O99         C109   1.275       .  A
O100       Cu107   2.002       .  S
O100        C110   1.276       .  A
O101       Cu107   2.021       .  S
O101        C111   1.279       .  A
O102       Cu107   2.019       .  S
O102        C112   1.278       .  A
O103       Cu108   2.005       .  S
O103        C112   1.276       .  A
O104       Cu108   2.004       .  S
O104        C111   1.277       .  A
O105       Cu108   2.017       .  S
O105        C110   1.279       .  A
O106       Cu108   2.025       .  S
O106        C109   1.280       .  A
Cu107      Cu108   2.374       .  S
C109        C459   1.471       .  S
C110        C475   1.471       .  S
C111        C571   1.474       .  S
C112        C424   1.467       .  S
O113       Cu121   2.023   1_455  S
O113        C123   1.280       .  A
O114       Cu121   2.013       .  S
O114        C124   1.279       .  A
O115       Cu121   2.003       .  S
O115        C125   1.276       .  A
O116       Cu121   1.999       .  S
O116        C126   1.276       .  A
O117       Cu122   2.020       .  S
O117        C126   1.279   1_545  A
O118       Cu122   2.014       .  S
O118        C125   1.278   1_545  A
O119       Cu122   2.003       .  S
O119        C124   1.277   1_545  A
O120       Cu122   1.995   1_455  S
O120        C123   1.275   1_545  A
Cu121      Cu122   2.375   1_565  S
C123        C411   1.471       .  S
C124        C392   1.471       .  S
C125        C683   1.466       .  S
C126        C376   1.472       .  S
O127       Cu135   2.008       .  S
O127        C137   1.278       .  A
O128       Cu135   2.015   1_655  S
O128        C138   1.279       .  A
O129       Cu135   2.007   1_655  S
O129        C139   1.277       .  A
O130       Cu135   2.006       .  S
O130        C140   1.277       .  A
O131       Cu136   2.016       .  S
O131        C140   1.279   1_655  A
O132       Cu136   2.015       .  S
O132        C139   1.278       .  A
O133       Cu136   2.000       .  S
O133        C138   1.277       .  A
O134       Cu136   2.011   1_455  S
O134        C137   1.278       .  A
Cu135      Cu136   2.374   1_455  S
C137        C360   1.472       .  S
C138        C344   1.471       .  S
C139        C651   1.468       .  S
C140        C331   1.473       .  S
O141       Cu149   2.019       .  S
O141        C151   1.279       .  A
O142       Cu149   2.016       .  S
O142        C152   1.278       .  A
O143       Cu149   2.001       .  S
O143        C153   1.276       .  A
O144       Cu149   1.996       .  S
O144        C154   1.276       .  A
O145       Cu150   2.021       .  S
O145        C154   1.280   1_545  A
O146       Cu150   2.014       .  S
O146        C153   1.279   1_545  A
O147       Cu150   2.000       .  S
O147        C152   1.276   1_545  A
O148       Cu150   2.004       .  S
O148        C151   1.277   1_545  A
Cu149      Cu150   2.374   1_565  S
C151        C315   1.473       .  S
C152        C584   1.463       .  S
C153        C395   1.470       .  S
C154        C408   1.471       .  S
O155       Cu163   2.014       .  S
O155        C165   1.278       .  A
O156       Cu163   2.013       .  S
O156        C166   1.277       .  A
O157       Cu163   2.005       .  S
O157        C167   1.277       .  A
O158       Cu163   2.013       .  S
O158        C168   1.278       .  A
O159       Cu164   2.002       .  S
O159        C168   1.277       .  A
O160       Cu164   2.014       .  S
O160        C167   1.278       .  A
O161       Cu164   2.012       .  S
O161        C166   1.277       .  A
O162       Cu164   2.010       .  S
O162        C165   1.278       .  A
Cu163      Cu164   2.374       .  S
C165        C296   1.474       .  S
C166        C555   1.467       .  S
C167        C363   1.472       .  S
C168        C347   1.470       .  S
O169       Cu177   2.008   1_455  S
O169        C179   1.278   1_545  A
O170       Cu177   2.016       .  S
O170        C180   1.279   1_545  A
O171       Cu177   2.000       .  S
O171        C181   1.277   1_545  A
O172       Cu177   2.002       .  S
O172        C182   1.276   1_545  A
O173       Cu178   2.018       .  S
O173        C182   1.279       .  A
O174       Cu178   2.018       .  S
O174        C181   1.278       .  A
O175       Cu178   1.998       .  S
O175        C180   1.276       .  A
O176       Cu178   2.009   1_455  S
O176        C179   1.278       .  A
Cu177      Cu178   2.375   1_545  S
C179        C283   1.472       .  S
C180        C267   1.470       .  S
C181        C504   1.467       .  S
C182        C379   1.472       .  S
O183       Cu191   2.015       .  S
O183        C193   1.278       .  A
O184       Cu191   2.011       .  S
O184        C194   1.278       .  A
O185       Cu191   2.009       .  S
O185        C195   1.278       .  A
O186       Cu191   2.016   1_455  S
O186        C196   1.279       .  A
O187       Cu192   2.000   1_455  S
O187        C196   1.277       .  A
O188       Cu192   2.010       .  S
O188        C195   1.278       .  A
O189       Cu192   2.011       .  S
O189        C194   1.277       .  A
O190       Cu192   2.010       .  S
O190        C193   1.278       .  A
Cu191      Cu192   2.374       .  S
C193        C328   1.474       .  S
C194        C488   1.468   1_655  S
C195        C232   1.472       .  S
C196        C251   1.471       .  S
O197       Cu205   2.009       .  S
O197        C207   1.277       .  A
O198       Cu205   2.012       .  S
O198        C208   1.279       .  A
O199       Cu205   2.013       .  S
O199        C209   1.277       .  A
O200       Cu205   2.009       .  S
O200        C210   1.277       .  A
O201       Cu206   2.017       .  S
O201        C210   1.279   1_545  A
O202       Cu206   2.014       .  S
O202        C209   1.277   1_545  A
O203       Cu206   1.999       .  S
O203        C208   1.276   1_545  A
O204       Cu206   2.010       .  S
O204        C207   1.278   1_545  A
Cu205      Cu206   2.374   1_565  S
C207        C280   1.472       .  S
C208        C264   1.469       .  S
C209        C443   1.466       .  S
C210        C312   1.474       .  S
O211       Cu219   2.012       .  S
O211        C221   1.277       .  A
O212       Cu219   2.009       .  S
O212        C222   1.278       .  A
O213       Cu219   2.007       .  S
O213        C223   1.278       .  A
O214       Cu219   2.018       .  S
O214        C224   1.279       .  A
O215       Cu220   2.000       .  S
O215        C224   1.277       .  A
O216       Cu220   2.010       .  S
O216        C223   1.277       .  A
O217       Cu220   2.014       .  S
O217        C222   1.278       .  A
O218       Cu220   2.010       .  S
O218        C221   1.278       .  A
Cu219      Cu220   2.374       .  S
C221        C427   1.469       .  S
C222        C299   1.474       .  S
C223        C248   1.471       .  S
C224        C235   1.472       .  S
C225        S231   1.706       .  A
C225        C230   1.387       .  A
C225        C226   1.399       .  A
C226        C227   1.401       .  A
C226        H237   1.083       .  S
C227        C236   1.367       .  A
C227        C228   1.387       .  A
C228        S234   1.710       .  A
C228        C229   1.403       .  A
C229        C230   1.404       .  A
C229        H238   1.083       .  S
C230        C233   1.371       .  A
S231        C232   1.722       .  A
C232        C233   1.388       .  A
C233        H239   1.083       .  S
S234        C235   1.724       .  A
C235        C236   1.386       .  A
C236        H240   1.083       .  S
C241        S247   1.708       .  A
C241        C246   1.387       .  A
C241        C242   1.403       .  A
C242        C243   1.403       .  A
C242        H253   1.083       .  S
C243        C252   1.372       .  A
C243        C244   1.387       .  A
C244        S250   1.704       .  A
C244        C245   1.399       .  A
C245        C246   1.400       .  A
C245        H254   1.083       .  S
C246        C249   1.368       .  A
S247        C248   1.724       .  A
C248        C249   1.385       .  A
C249        H255   1.083       .  S
S250        C251   1.722       .  A
C251        C252   1.387       .  A
C252        H256   1.083       .  S
C257        S263   1.705       .  A
C257        C262   1.387   1_545  A
C257        C258   1.401       .  A
C258        C259   1.401   1_545  A
C258        H269   1.083       .  S
C259        C268   1.370   1_565  A
C259        C260   1.387       .  A
C260        S266   1.704       .  A
C260        C261   1.400       .  A
C261        C262   1.401       .  A
C261        H270   1.083       .  S
C262        C265   1.369       .  A
S263        C264   1.723   1_545  A
C264        C265   1.385       .  A
C265        H271   1.083       .  S
S266        C267   1.723       .  A
C267        C268   1.386   1_565  A
C268        H272   1.083       .  S
C273        S279   1.708       .  A
C273        C278   1.387       .  A
C273        C274   1.402       .  A
C274        C275   1.403       .  A
C274        H285   1.083       .  S
C275        C284   1.370       .  A
C275        C276   1.387   1_565  A
C276        S282   1.706       .  A
C276        C277   1.401       .  A
C277        C278   1.402   1_545  A
C277        H286   1.083       .  S
C278        C281   1.369   1_565  A
S279        C280   1.724       .  A
C280        C281   1.386   1_565  A
C281        H287   1.083       .  S
S282        C283   1.723   1_545  A
C283        C284   1.387       .  A
C284        H288   1.083       .  S
C289        S295   1.708       .  A
C289        C294   1.387       .  A
C289        C290   1.401       .  A
C290        C291   1.402       .  A
C290        H301   1.083       .  S
C291        C300   1.370       .  A
C291        C292   1.387       .  A
C292        S298   1.709       .  A
C292        C293   1.402       .  A
C293        C294   1.403       .  A
C293        H302   1.083       .  S
C294        C297   1.371       .  A
S295        C296   1.723       .  A
C296        C297   1.388       .  A
C297        H303   1.083       .  S
S298        C299   1.724       .  A
C299        C300   1.387       .  A
C300        H304   1.083       .  S
C305        S311   1.707       .  A
C305        C310   1.387       .  A
C305        C306   1.402       .  A
C306        C307   1.403       .  A
C306        H317   1.083       .  S
C307        C316   1.372       .  A
C307        C308   1.387   1_565  A
C308        S314   1.706       .  A
C308        C309   1.402       .  A
C309        C310   1.403   1_545  A
C309        H318   1.083       .  S
C310        C313   1.372   1_565  A
S311        C312   1.724       .  A
C312        C313   1.387   1_565  A
C313        H319   1.083       .  S
S314        C315   1.724   1_545  A
C315        C316   1.387       .  A
C316        H320   1.083       .  S
C321        S327   1.709       .  A
C321        C326   1.387   1_455  A
C321        C322   1.403       .  A
C322        C323   1.404       .  A
C322        H333   1.083       .  S
C323        C332   1.371       .  A
C323        C324   1.387   1_455  A
C324        S330   1.708       .  A
C324        C325   1.401       .  A
C325        C326   1.402       .  A
C325        H334   1.083       .  S
C326        C329   1.370       .  A
S327        C328   1.724   1_455  A
C328        C329   1.387       .  A
C329        H335   1.083       .  S
S330        C331   1.723   1_655  A
C331        C332   1.388       .  A
C332        H336   1.083       .  S
C337        S343   1.707       .  A
C337        C342   1.387       .  A
C337        C338   1.400       .  A
C338        C339   1.402       .  A
C338        H349   1.083       .  S
C339        C348   1.368       .  A
C339        C340   1.387       .  A
C340        S346   1.708       .  A
C340        C341   1.401       .  A
C341        C342   1.402       .  A
C341        H350   1.083       .  S
C342        C345   1.369       .  A
S343        C344   1.722       .  A
C344        C345   1.387       .  A
C345        H351   1.083       .  S
S346        C347   1.723       .  A
C347        C348   1.386       .  A
C348        H352   1.083       .  S
C353        S359   1.707       .  A
C353        C358   1.387       .  A
C353        C354   1.402       .  A
C354        C355   1.403       .  A
C354        H365   1.083       .  S
C355        C364   1.370       .  A
C355        C356   1.387       .  A
C356        S362   1.707       .  A
C356        C357   1.401       .  A
C357        C358   1.402       .  A
C357        H366   1.083       .  S
C358        C361   1.370       .  A
S359        C360   1.724       .  A
C360        C361   1.386       .  A
C361        H367   1.083       .  S
S362        C363   1.723       .  A
C363        C364   1.387       .  A
C364        H368   1.083       .  S
C369        S375   1.704       .  A
C369        C374   1.387   1_565  A
C369        C370   1.401       .  A
C370        C371   1.401       .  A
C370        H381   1.083       .  S
C371        C380   1.371       .  A
C371        C372   1.387   1_565  A
C372        S378   1.706       .  A
C372        C373   1.403       .  A
C373        C374   1.403       .  A
C373        H382   1.083       .  S
C374        C377   1.372       .  A
S375        C376   1.723       .  A
C376        C377   1.387   1_565  A
C377        H383   1.083       .  S
S378        C379   1.724   1_545  A
C379        C380   1.386       .  A
C380        H384   1.083       .  S
C385        S391   1.705       .  A
C385        C390   1.387   1_545  A
C385        C386   1.401       .  A
C386        C387   1.402       .  A
C386        H397   1.083       .  S
C387        C396   1.370       .  A
C387        C388   1.387   1_545  A
C388        S394   1.705       .  A
C388        C389   1.401       .  A
C389        C390   1.401       .  A
C389        H398   1.083       .  S
C390        C393   1.370       .  A
S391        C392   1.723   1_545  A
C392        C393   1.386       .  A
C393        H399   1.083       .  S
S394        C395   1.723       .  A
C395        C396   1.386   1_565  A
C396        H400   1.083       .  S
C401        S407   1.704       .  A
C401        C406   1.387   1_565  A
C401        C402   1.401       .  A
C402        C403   1.401       .  A
C402        H413   1.083       .  S
C403        C412   1.371       .  A
C403        C404   1.387   1_565  A
C404        S410   1.704       .  A
C404        C405   1.401       .  A
C405        C406   1.402       .  A
C405        H414   1.083       .  S
C406        C409   1.371       .  A
S407        C408   1.724       .  A
C408        C409   1.386   1_565  A
C409        H415   1.083       .  S
S410        C411   1.724   1_545  A
C411        C412   1.386       .  A
C412        H416   1.083       .  S
C417        S423   1.706       .  A
C417        C422   1.388       .  A
C417        C418   1.400       .  A
C418        C419   1.401       .  A
C418        H429   1.083       .  S
C419        C428   1.369       .  A
C419        C420   1.387       .  A
C420        S426   1.710       .  A
C420        C421   1.403       .  A
C421        C422   1.404       .  A
C421        H430   1.083       .  S
C422        C425   1.373       .  A
S423        C424   1.721       .  A
C424        C425   1.386       .  A
C425        H431   1.083       .  S
S426        C427   1.723       .  A
C427        C428   1.384       .  A
C428        H432   1.083       .  S
C433        S439   1.711       .  A
C433        C438   1.387   1_545  A
C433        C434   1.403       .  A
C434        C435   1.404       .  A
C434        H445   1.083       .  S
C435        C444   1.372       .  A
C435        C436   1.388   1_545  A
C436        S442   1.709       .  A
C436        C437   1.401       .  A
C437        C438   1.403       .  A
C437        H446   1.083       .  S
C438        C441   1.370       .  A
S439        C440   1.722       .  A
C440        C441   1.387   1_545  A
C441        H447   1.083       .  S
S442        C443   1.720       .  A
C443        C444   1.385   1_565  A
C444        H448   1.083       .  S
C449        S455   1.705       .  A
C449        C454   1.387       .  A
C449        C450   1.402       .  A
C450        C451   1.402       .  A
C450        H461   1.083       .  S
C451        C460   1.372       .  A
C451        C452   1.387       .  A
C452        S458   1.703       .  A
C452        C453   1.400       .  A
C453        C454   1.400       .  A
C453        H462   1.083       .  S
C454        C457   1.370       .  A
S455        C456   1.724       .  A
C456        C457   1.385       .  A
C457        H463   1.083       .  S
S458        C459   1.723       .  A
C459        C460   1.386       .  A
C460        H464   1.083       .  S
C465        S471   1.704       .  A
C465        C470   1.387       .  A
C465        C466   1.401       .  A
C466        C467   1.401       .  A
C466        H477   1.083       .  S
C467        C476   1.371       .  A
C467        C468   1.387       .  A
C468        S474   1.705       .  A
C468        C469   1.402       .  A
C469        C470   1.402       .  A
C469        H478   1.083       .  S
C470        C473   1.373       .  A
S471        C472   1.724       .  A
C472        C473   1.387       .  A
C473        H479   1.083       .  S
S474        C475   1.724       .  A
C475        C476   1.386       .  A
C476        H480   1.083       .  S
C481        S487   1.708       .  A
C481        C486   1.387   1_455  A
C481        C482   1.403       .  A
C482        C483   1.403       .  A
C482        H493   1.083       .  S
C483        C492   1.372       .  A
C483        C484   1.388   1_455  A
C484        S490   1.706       .  A
C484        C485   1.401       .  A
C485        C486   1.402       .  A
C485        H494   1.083       .  S
C486        C489   1.371       .  A
S487        C488   1.722       .  A
C488        C489   1.385   1_455  A
C489        H495   1.083       .  S
S490        C491   1.721   1_655  A
C491        C492   1.385       .  A
C492        H496   1.083       .  S
C497        S503   1.710       .  A
C497        C502   1.387   1_655  A
C497        C498   1.403       .  A
C498        C499   1.404       .  A
C498        H509   1.083       .  S
C499        C508   1.372       .  A
C499        C500   1.388   1_665  A
C500        S506   1.705       .  A
C500        C501   1.399       .  A
C501        C502   1.400   1_545  A
C501        H510   1.083       .  S
C502        C505   1.368   1_565  A
S503        C504   1.722       .  A
C504        C505   1.384   1_665  A
C505        H511   1.083       .  S
S506        C507   1.719   1_445  A
C507        C508   1.385       .  A
C508        H512   1.083       .  S
C513        S519   1.704       .  A
C513        C518   1.387   1_455  A
C513        C514   1.400       .  A
C514        C515   1.401       .  A
C514        H525   1.083       .  S
C515        C524   1.370       .  A
C515        C516   1.387   1_455  A
C516        S522   1.706       .  A
C516        C517   1.402       .  A
C517        C518   1.402       .  A
C517        H526   1.083       .  S
C518        C521   1.371       .  A
S519        C520   1.723       .  A
C520        C521   1.386   1_455  A
C521        H527   1.083       .  S
S522        C523   1.724       .  A
C523        C524   1.385   1_655  A
C524        H528   1.083       .  S
C529        S535   1.706       .  A
C529        C534   1.387   1_655  A
C529        C530   1.401       .  A
C530        C531   1.402       .  A
C530        H541   1.083       .  S
C531        C540   1.370       .  A
C531        C532   1.387   1_655  A
C532        S538   1.708       .  A
C532        C533   1.402       .  A
C533        C534   1.403       .  A
C533        H542   1.083       .  S
C534        C537   1.371       .  A
S535        C536   1.723       .  A
C536        C537   1.387   1_655  A
C537        H543   1.083       .  S
S538        C539   1.724       .  A
C539        C540   1.386   1_455  A
C540        H544   1.083       .  S
C545        S551   1.710       .  A
C545        C550   1.387       .  A
C545        C546   1.403       .  A
C546        C547   1.404       .  A
C546        H557   1.083       .  S
C547        C556   1.372       .  A
C547        C548   1.387       .  A
C548        S554   1.709       .  A
C548        C549   1.401       .  A
C549        C550   1.403       .  A
C549        H558   1.083       .  S
C550        C553   1.370       .  A
S551        C552   1.723       .  A
C552        C553   1.386       .  A
C553        H559   1.083       .  S
S554        C555   1.720       .  A
C555        C556   1.385       .  A
C556        H560   1.083       .  S
C561        S567   1.710       .  A
C561        C566   1.387       .  A
C561        C562   1.402   1_554  A
C562        C563   1.404       .  A
C562        H573   1.083       .  S
C563        C572   1.371       .  A
C563        C564   1.387       .  A
C564        S570   1.709       .  A
C564        C565   1.402   1_556  A
C565        C566   1.403       .  A
C565        H574   1.083       .  S
C566        C569   1.370       .  A
S567        C568   1.724       .  A
C568        C569   1.388       .  A
C569        H575   1.083       .  S
S570        C571   1.723       .  A
C571        C572   1.388       .  A
C572        H576   1.083       .  S
C577        S583   1.708       .  A
C577        C582   1.388       .  A
C577        C578   1.401       .  A
C578        C579   1.402       .  A
C578        H589   1.083       .  S
C579        C588   1.369       .  A
C579        C580   1.388   1_565  A
C580        S586   1.706       .  A
C580        C581   1.401       .  A
C581        C582   1.402   1_545  A
C581        H590   1.083       .  S
C582        C585   1.368   1_565  A
S583        C584   1.719       .  A
C584        C585   1.384   1_565  A
C585        H591   1.083       .  S
S586        C587   1.722   1_545  A
C587        C588   1.384       .  A
C588        H592   1.083       .  S
C593        S599   1.704       .  A
C593        C598   1.387       .  A
C593        C594   1.401   1_556  A
C594        C595   1.401       .  A
C594        H605   1.083       .  S
C595        C604   1.371       .  A
C595        C596   1.387       .  A
C596        S602   1.705       .  A
C596        C597   1.402   1_554  A
C597        C598   1.403       .  A
C597        H606   1.083       .  S
C598        C601   1.373       .  A
S599        C600   1.723       .  A
C600        C601   1.387       .  A
C601        H607   1.083       .  S
S602        C603   1.724       .  A
C603        C604   1.386       .  A
C604        H608   1.083   1_565  S
C609        S615   1.705       .  A
C609        C614   1.387       .  A
C609        C610   1.401       .  A
C610        C611   1.401       .  A
C610        H621   1.083       .  S
C611        C620   1.370       .  A
C611        C612   1.387       .  A
C612        S618   1.706       .  A
C612        C613   1.402       .  A
C613        C614   1.402       .  A
C613        H622   1.083       .  S
C614        C617   1.372       .  A
S615        C616   1.724       .  A
C616        C617   1.386       .  A
C617        H623   1.083       .  S
S618        C619   1.723       .  A
C619        C620   1.386       .  A
C620        H624   1.083       .  S
C625        S631   1.707       .  A
C625        C630   1.387       .  A
C625        C626   1.402       .  A
C626        C627   1.403       .  A
C626        H637   1.083       .  S
C627        C636   1.371       .  A
C627        C628   1.387       .  A
C628        S634   1.705       .  A
C628        C629   1.401       .  A
C629        C630   1.401       .  A
C629        H638   1.083       .  S
C630        C633   1.370       .  A
S631        C632   1.724       .  A
C632        C633   1.386       .  A
C633        H639   1.083       .  S
S634        C635   1.723       .  A
C635        C636   1.387       .  A
C636        H640   1.083       .  S
C641        S647   1.707       .  A
C641        C646   1.387   1_455  A
C641        C642   1.401       .  A
C642        C643   1.402       .  A
C642        H653   1.083       .  S
C643        C652   1.370       .  A
C643        C644   1.387   1_455  A
C644        S650   1.709       .  A
C644        C645   1.402       .  A
C645        C646   1.403       .  A
C645        H654   1.083       .  S
C646        C649   1.371       .  A
S647        C648   1.721   1_455  A
C648        C649   1.385       .  A
C649        H655   1.083       .  S
S650        C651   1.722       .  A
C651        C652   1.385   1_655  A
C652        H656   1.083       .  S
C657        S663   1.707       .  A
C657        C662   1.387   1_655  A
C657        C658   1.399   1_554  A
C658        C659   1.401       .  A
C658        H669   1.083       .  S
C659        C668   1.367       .  A
C659        C660   1.387   1_655  A
C660        S666   1.711       .  A
C660        C661   1.403   1_556  A
C661        C662   1.404       .  A
C661        H670   1.083       .  S
C662        C665   1.370       .  A
S663        C664   1.722       .  A
C664        C665   1.388   1_655  A
C665        H671   1.083       .  S
S666        C667   1.724       .  A
C667        C668   1.386   1_455  A
C668        H672   1.083       .  S
C673        S679   1.707       .  A
C673        C678   1.388   1_665  A
C673        C674   1.402       .  A
C674        C675   1.403       .  A
C674        H685   1.083       .  S
C675        C684   1.370       .  A
C675        C676   1.387   1_665  A
C676        S682   1.706       .  A
C676        C677   1.400       .  A
C677        C678   1.401       .  A
C677        H686   1.083       .  S
C678        C681   1.370       .  A
S679        C680   1.721       .  A
C680        C681   1.383   1_665  A
C681        H687   1.083       .  S
S682        C683   1.720   1_445  A
C683        C684   1.386       .  A
C684        H688   1.083       .  S
C689        S695   1.706       .  A
C689        C694   1.387   1_455  A
C689        C690   1.402   1_556  A
C690        C691   1.403       .  A
C690        H701   1.083       .  S
C691        C700   1.372       .  A
C691        C692   1.387   1_465  A
C692        S698   1.703       .  A
C692        C693   1.400   1_554  A
C693        C694   1.400   1_545  A
C693        H702   1.083       .  S
C694        C697   1.370       .  A
S695        C696   1.724       .  A
C696        C697   1.385   1_455  A
C697        H703   1.083       .  S
S698        C699   1.723       .  A
C699        C700   1.387   1_645  A
C700        H704   1.083       .  S
C705        S711   1.710       .  A
C705        C710   1.387   1_455  A
C705        C706   1.402       .  A
C706        C707   1.404       .  A
C706        H717   1.083       .  S
C707        C716   1.370       .  A
C707        C708   1.387   1_455  A
C708        S714   1.707       .  A
C708        C709   1.400       .  A
C709        C710   1.401       .  A
C709        H718   1.083       .  S
C710        C713   1.367       .  A
S711        C712   1.723       .  A
C712        C713   1.386   1_455  A
C713        H719   1.083       .  S
S714        C715   1.722       .  A
C715        C716   1.388   1_655  A
C716        H720   1.083       .  S
C721        S727   1.707       .  A
C721        C726   1.387   1_655  A
C721        C722   1.403       .  A
C722        C723   1.403       .  A
C722        H733   1.083       .  S
C723        C732   1.373       .  A
C723        C724   1.387   1_655  A
C724        S730   1.703       .  A
C724        C725   1.401       .  A
C725        C726   1.401       .  A
C725        H734   1.083       .  S
C726        C729   1.370       .  A
S727        C728   1.724       .  A
C728        C729   1.386   1_655  A
C729        H735   1.083       .  S
S730        C731   1.723   1_455  A
C731        C732   1.387       .  A
C732        H736   1.083       .  S
