geometry optimzed in LAMMPS
_audit_creation_date              2020-11-30 
_audit_creation_method            'lammps2cif' 
_symmetry_space_group_name_H-M    'P1' 
_symmetry_Int_Tables_number       1 
_symmetry_cell_setting            triclinic 
loop_ 
_symmetry_equiv_pos_as_xyz 
  x,y,z 
_cell_length_a                    49.17772343 
_cell_length_b                    49.33367244464736 
_cell_length_c                    40.48534720525633 
_cell_angle_alpha                 89.57023240776591 
_cell_angle_beta                  90.08116546495805 
_cell_angle_gamma                 121.05583262238248 
loop_ 
_atom_site_label 
_atom_site_type_symbol 
_atom_site_fract_x 
_atom_site_fract_y 
_atom_site_fract_z 
_atom_site_charge 
C1          C  0.13640051  0.12825123  0.12676182     0.03900
C2          C  0.13326737  0.15318642  0.13845551    -0.12200
C3          C  0.15213582  0.17233247  0.16484957     0.01400
C4          C  0.17439975  0.16558535  0.17847432    -0.10700
C5          C  0.18083136  0.14374535  0.16385069     0.03900
C6          C  0.16120172  0.12466564  0.13818904    -0.10200
H7          H  0.11523158  0.15646591  0.12724392     0.09500
H8          H  0.18652095  0.17660217  0.20113208     0.07000
H9          H  0.16428817  0.10622985  0.12787775     0.06900
C10         C  0.30380162  0.12777619  0.21803960     0.46300
H11         H  0.30441077  0.12665267  0.19081740    -0.02800
C12         C  0.30141282  0.12821094  0.28240477     0.46300
H13         H  0.30000164  0.12826685  0.30974564    -0.02800
C14         C  0.30546965  0.10065248  0.23467517    -0.16500
C15         C  0.33147247  0.15803763  0.23323878    -0.16200
C16         C  0.27342856  0.12545027  0.23178264    -0.16600
C17         C  0.30342958  0.10035523  0.26841504    -0.16600
C18         C  0.33014921  0.15801425  0.26745631    -0.16100
C19         C  0.27261636  0.12650578  0.26560447    -0.16500
C20         C  0.13071360  0.29251753  0.21539820     0.46300
H21         H  0.13319717  0.29403249  0.18807176    -0.02800
C22         C  0.12551708  0.28956317  0.27961685     0.46300
H23         H  0.12462781  0.28904978  0.30687675    -0.02800
C24         C  0.10166422  0.29333902  0.22824453    -0.16500
C25         C  0.12746643  0.26233903  0.23032015    -0.16200
C26         C  0.15934981  0.31956449  0.23321970    -0.16600
C27         C  0.09846122  0.29140755  0.26234633    -0.16600
C28         C  0.12507979  0.26090074  0.26417510    -0.16100
C29         C  0.15625684  0.31832498  0.26685876    -0.16500
C30         C  0.46926128  0.30542075  0.12761196     0.03900
C31         C  0.49754322  0.30494701  0.13110878    -0.12200
C32         C  0.49823027  0.28155931  0.15069536     0.01400
C33         C  0.46961005  0.25761352  0.16443036    -0.10700
C34         C  0.44176516  0.25869411  0.16339398     0.03900
C35         C  0.44173600  0.28283508  0.14463459    -0.10200
H36         H  0.01890289  0.32314390  0.11920415     0.09500
H37         H  0.46924617  0.23866503  0.17807812     0.07000
H38         H  0.42054393  0.28431056  0.14330021     0.06900
C39         C  0.30953688  0.46133342  0.13603686     0.03900
C40         C  0.31385840  0.49022448  0.14704847    -0.12200
C41         C  0.29345826  0.49067452  0.17094548     0.01400
C42         C  0.26931680  0.46195547  0.18434704    -0.10700
C43         C  0.26284282  0.43269778  0.17192544     0.03900
C44         C  0.28363701  0.43269679  0.14790200    -0.10200
H45         H  0.33309463  0.01274434  0.13592100     0.09500
H46         H  0.25556317  0.46263623  0.20482396     0.07000
H47         H  0.27992732  0.41061894  0.13830863     0.06900
C48         C  0.46645443  0.31269808  0.36067626     0.03900
C49         C  0.49475418  0.31614834  0.34795230    -0.12200
C50         C  0.49366338  0.29269383  0.32750591     0.01400
C51         C  0.46428453  0.26615154  0.31962483    -0.10700
C52         C  0.43602420  0.26311187  0.33115132     0.03900
C53         C  0.43715406  0.28618149  0.35200020    -0.10200
H54         H  0.01750252  0.33666209  0.35400569     0.09500
H55         H  0.46337565  0.24820328  0.30363598     0.07000
H56         H  0.41527077  0.28371631  0.36112633     0.06900
C57         C  0.30443953  0.45778237  0.36395307     0.03900
C58         C  0.30850266  0.48651001  0.35256053    -0.12200
C59         C  0.28810265  0.48692134  0.32857298     0.01400
C60         C  0.26284322  0.45803890  0.31692533    -0.10700
C61         C  0.25812581  0.42902002  0.32868821     0.03900
C62         C  0.27908850  0.42911916  0.35237579    -0.10200
H63         H  0.32810679  0.00871820  0.36310313     0.09500
H64         H  0.24726538  0.45813250  0.29801366     0.07000
H65         H  0.27594626  0.40699175  0.36157055     0.06900
C66         C  0.12603077  0.11998169  0.36111503     0.03900
C67         C  0.15144725  0.11721353  0.34986422    -0.12200
C68         C  0.17354870  0.13937321  0.32725758     0.01400
C69         C  0.17076369  0.16517667  0.31712762    -0.10700
C70         C  0.14560723  0.16829367  0.32862024     0.03900
C71         C  0.12342879  0.14567342  0.35063729    -0.10200
H72         H  0.15337764  0.09724084  0.35779340     0.09500
H73         H  0.18719478  0.18190655  0.29903323     0.07000
H74         H  0.10367162  0.14773301  0.35911144     0.06900
Zn75       Zn  0.46343429  0.42771174  0.51744474     1.49700
Zn76       Zn  0.00307890  0.00365330  0.51563944     1.49400
Zn77       Zn  0.46458485  0.46592612  0.45269138     1.49100
Zn78       Zn  0.42780526  0.46671852  0.51827112     1.49500
O79         O  0.46460165  0.46589746  0.50098385    -1.83300
O80         O  0.00132378  0.43983285  0.54689085    -0.74000
O81         O  0.03173042  0.02809001  0.47772466    -0.73800
O82         O  0.46515719  0.42800971  0.43510982    -0.73300
O83         O  0.02738741  0.49244635  0.54633943    -0.74000
O84         O  0.46469836  0.40144957  0.47975689    -0.73600
O85         O  0.00276050  0.00354816  0.43374224    -0.74200
O86         O  0.40032135  0.46566515  0.48078688    -0.73500
O87         O  0.49366831  0.03309879  0.54046712    -0.74300
O88         O  0.42537952  0.46459231  0.43575611    -0.73700
O89         O  0.44119274  0.00586268  0.54522358    -0.74200
O90         O  0.40016309  0.42838657  0.54695270    -0.74100
O91         O  0.42371788  0.40028472  0.54488205    -0.73900
C92         C  0.02414759  0.46648699  0.55649236     0.77900
C93         C  0.02815063  0.02572356  0.44657012     0.78400
C94         C  0.46535683  0.40462843  0.44843732     0.77400
C95         C  0.40205496  0.46459292  0.44949795     0.77800
C96         C  0.46808476  0.03045213  0.55112042     0.78900
C97         C  0.40122404  0.40390822  0.55490992     0.77900
Zn98       Zn  0.00686210  0.00689948  0.97892608     1.49700
Zn99       Zn  0.47122173  0.43178860  0.98149823     1.49400
Zn100      Zn  0.47108903  0.46862586  0.04588120     1.49100
Zn101      Zn  0.43123624  0.46697137  0.98200817     1.49500
O102        O  0.47011018  0.46880389  0.99727432    -1.83300
O103        O  0.03435794  0.49729577  0.95058163    -0.74000
O104        O  0.46995566  0.40397146  0.01912959    -0.73800
O105        O  0.01128445  0.00818772  0.06193567    -0.73300
O106        O  0.01160208  0.44516994  0.95602544    -0.74000
O107        O  0.03516644  0.03400018  0.01577468    -0.73600
O108        O  0.47142568  0.42998956  0.06406493    -0.74200
O109        O  0.40343861  0.46392454  0.02064541    -0.73500
O110        O  0.43415242  0.40535147  0.95115902    -0.74300
O111        O  0.43189693  0.46712117  0.06467985    -0.73700
O112        O  0.40684905  0.42992256  0.95185048    -0.74200
O113        O  0.44061935  0.00432134  0.95407335    -0.74100
O114        O  0.49329294  0.03334364  0.95266392    -0.73900
C115        C  0.03393890  0.47164543  0.94506803     0.77900
C116        C  0.47063112  0.40633788  0.05048080     0.78400
C117        C  0.03441060  0.03183007  0.04714960     0.77400
C118        C  0.40701481  0.46475966  0.05191970     0.77800
C119        C  0.41086202  0.40789226  0.94157694     0.78900
C120        C  0.46618232  0.02903968  0.94494194     0.77900
C121        C  0.47015195  0.12729935  0.63311256     0.03900
C122        C  0.44105458  0.12628063  0.63566151    -0.12200
C123        C  0.43859876  0.14882953  0.65422196     0.01400
C124        C  0.46642980  0.17405976  0.66764579    -0.10700
C125        C  0.49552870  0.17537993  0.66638967     0.03900
C126        C  0.49733094  0.15188643  0.64865338    -0.10200
H127        H  0.42043944  0.10784392  0.62308800     0.09500
H128        H  0.46535564  0.19254553  0.68051452     0.07000
H129        H  0.01921257  0.15196386  0.64759973     0.06900
C130        C  0.46521477  0.12343454  0.85918742     0.03900
C131        C  0.43776161  0.12196335  0.84605065    -0.12200
C132        C  0.44052741  0.14672747  0.82581648     0.01400
C133        C  0.47062491  0.17324341  0.82005560    -0.10700
C134        C  0.49793225  0.17456596  0.83201873     0.03900
C135        C  0.49520100  0.14963571  0.85120278    -0.10200
H136        H  0.41444276  0.10188143  0.85160355     0.09500
H137        H  0.47295741  0.19241633  0.80480105     0.07000
H138        H  0.01629452  0.15038792  0.85984833     0.06900
C139        C  0.30044030  0.13668739  0.70946973     0.46300
H140        H  0.29631944  0.13249112  0.68252321    -0.02800
C141        C  0.30977345  0.14555836  0.77283904     0.46300
H142        H  0.31313180  0.14899235  0.79984814    -0.02800
C143        C  0.29763932  0.16445594  0.72208951    -0.16500
C144        C  0.27630741  0.10835803  0.73035062    -0.16200
C145        C  0.33324377  0.14338820  0.72090285    -0.16600
C146        C  0.30409377  0.17013569  0.75540503    -0.16600
C147        C  0.28108560  0.11309247  0.76387954    -0.16100
C148        C  0.33788156  0.14724899  0.75454624    -0.16500
C149        C  0.13127220  0.30926404  0.71975658     0.46300
H150        H  0.12897897  0.31135931  0.69284978    -0.02800
C151        C  0.13572160  0.30544160  0.78357838     0.46300
H152        H  0.13712989  0.30438102  0.81053019    -0.02800
C153        C  0.10364052  0.27856794  0.73453130    -0.16500
C154        C  0.16142106  0.30862794  0.73077461    -0.16200
C155        C  0.13100776  0.33615499  0.73955652    -0.16600
C156        C  0.10636126  0.27653227  0.76831349    -0.16600
C157        C  0.16393581  0.30777447  0.76506068    -0.16100
C158        C  0.13475081  0.33453431  0.77299526    -0.16500
C159        C  0.10542323  0.46959227  0.66108466     0.03900
C160        C  0.13431057  0.49762221  0.66791118    -0.12200
C161        C  0.15386292  0.49876712  0.69394648     0.01400
C162        C  0.14413101  0.47079058  0.71218242    -0.10700
C163        C  0.11759243  0.44197650  0.70283522     0.03900
C164        C  0.09758813  0.44166487  0.67821482    -0.10200
H165        H  0.14278396  0.01910444  0.65204172     0.09500
H166        H  0.15851789  0.47067026  0.73218160     0.07000
H167        H  0.07695036  0.41935857  0.67113478     0.06900
C168        C  0.29581514  0.30135803  0.62798523     0.03900
C169        C  0.27191673  0.30504114  0.64235859    -0.12200
C170        C  0.24473077  0.27912111  0.65650746     0.01400
C171        C  0.24178285  0.24932268  0.65574771    -0.10700
C172        C  0.26800318  0.24631172  0.64782523     0.03900
C173        C  0.29456505  0.27242168  0.63280966    -0.10200
H174        H  0.27480806  0.32832178  0.64288599     0.09500
H175        H  0.21983854  0.22892528  0.66419717     0.07000
H176        H  0.31480066  0.27076566  0.62580274     0.06900
C177        C  0.31500759  0.31569621  0.85400972     0.03900
C178        C  0.28992080  0.31967880  0.84377723    -0.12200
C179        C  0.26729933  0.29873886  0.82130209     0.01400
C180        C  0.26879369  0.27282462  0.80988903    -0.10700
C181        C  0.29368563  0.26863325  0.81964005     0.03900
C182        C  0.31709411  0.29041889  0.84104674    -0.10200
H183        H  0.28794095  0.33910911  0.85315235     0.09500
H184        H  0.25107906  0.25640065  0.79278449     0.07000
H185        H  0.33711105  0.28785481  0.84715732     0.06900
C186        C  0.13405251  0.47565247  0.86482023     0.03900
C187        C  0.13341033  0.44819747  0.85405582    -0.12200
C188        C  0.16027146  0.44974305  0.83899570     0.01400
C189        C  0.18772433  0.47988504  0.83528314    -0.10700
C190        C  0.18723366  0.50745596  0.84167716     0.03900
C191        C  0.16105970  0.50527953  0.85795742    -0.10200
H192        H  0.11142256  0.42582572  0.85691260     0.09500
H193        H  0.20955295  0.48274088  0.82622353     0.07000
H194        H  0.16122276  0.02690341  0.86423603     0.06900
C195        C  0.22185667  0.32685213  0.77036897    -0.11500
C196        C  0.19085604  0.30790899  0.78306833     0.05500
C197        C  0.18641411  0.28838275  0.81114325    -0.06800
C198        C  0.21192540  0.28641818  0.82351389    -0.07500
C199        C  0.24203839  0.30392741  0.80940932    -0.02100
C200        C  0.24723992  0.32478158  0.78307297     0.04800
N201        N  0.27791277  0.34297459  0.76814920     0.67300
H202        H  0.22624553  0.34272392  0.74973204     0.16200
H203        H  0.20806326  0.27067045  0.84414687     0.15900
N204        N  0.15654064  0.26990488  0.82756663     0.75000
O205        O  0.28261390  0.33652339  0.73939306    -0.38500
O206        O  0.29999695  0.36631137  0.78314764    -0.38400
O207        O  0.14130683  0.24033675  0.82367450    -0.39100
O208        O  0.15186108  0.28073773  0.85370108    -0.39200
C209        C  0.21266961  0.30504641  0.66040321    -0.11500
C210        C  0.22049721  0.28370081  0.67370730     0.05500
C211        C  0.20593785  0.26825946  0.70381254    -0.06800
C212        C  0.18421944  0.27443883  0.71912540    -0.07500
C213        C  0.17937934  0.29880587  0.70814830    -0.02100
C214        C  0.19326096  0.31339941  0.67741943     0.04800
N215        N  0.18969348  0.33776909  0.66309051     0.67300
H216        H  0.22262118  0.31637743  0.63682100     0.16200
H217        H  0.17321069  0.26183231  0.74173588     0.15900
N218        N  0.21545287  0.24915838  0.72132795     0.75000
O219        O  0.21462154  0.36411143  0.65750377    -0.38500
O220        O  0.16591623  0.32974761  0.64492455    -0.38400
O221        O  0.24436039  0.26062448  0.72834237    -0.39100
O222        O  0.19482769  0.22380241  0.73528427    -0.39200
C223        C  0.13596776  0.39048675  0.83917324    -0.11500
C224        C  0.15847164  0.42021315  0.82563858     0.05500
C225        C  0.17697299  0.42013280  0.79854665    -0.06800
C226        C  0.17022564  0.39160343  0.78437503    -0.07500
C227        C  0.14482528  0.36249497  0.79508384    -0.02100
C228        C  0.12876642  0.36194251  0.82417985     0.04800
N229        N  0.10443987  0.33306380  0.83861366     0.67300
H230        H  0.12323509  0.38901418  0.86151937     0.16200
H231        H  0.18417479  0.39241593  0.76336987     0.15900
N232        N  0.20199359  0.44829663  0.78364751     0.75000
O233        O  0.11233569  0.31704786  0.85624722    -0.38500
O234        O  0.07708809  0.32901110  0.84227546    -0.38400
O235        O  0.23036932  0.45603108  0.78914673    -0.39100
O236        O  0.19601317  0.45978197  0.75876431    -0.39200
C237        C  0.13763445  0.40673145  0.69246334    -0.11500
C238        C  0.11713611  0.41252496  0.71070305     0.05500
C239        C  0.09818925  0.39104765  0.73558719    -0.06800
C240        C  0.10072252  0.36432876  0.74189488    -0.07500
C241        C  0.12372446  0.36006950  0.72566096    -0.02100
C242        C  0.14195729  0.38158472  0.70028970     0.04800
N243        N  0.16794225  0.38131325  0.68521524     0.67300
H244        H  0.15238852  0.42357894  0.67349322     0.16200
H245        H  0.08651863  0.34817560  0.76156028     0.15900
N246        N  0.07804029  0.39706034  0.75588783     0.75000
O247        O  0.17325323  0.38799855  0.65483138    -0.38500
O248        O  0.19026847  0.38453772  0.70337188    -0.38400
O249        O  0.05015666  0.37503169  0.76252465    -0.39100
O250        O  0.08926822  0.42325276  0.77040579    -0.39200
C251        C  0.29763183  0.19003540  0.66836274    -0.11500
C252        C  0.28523242  0.18039580  0.70043280     0.05500
C253        C  0.26124794  0.18615026  0.71100378    -0.06800
C254        C  0.25482779  0.20590757  0.69207312    -0.07500
C255        C  0.26999350  0.21900240  0.66171546    -0.02100
C256        C  0.28982796  0.20866927  0.64855872     0.04800
N257        N  0.30144597  0.21597283  0.61516836     0.67300
H258        H  0.31368534  0.18321004  0.65864242     0.16200
H259        H  0.23813081  0.21151455  0.70214256     0.15900
N260        N  0.24276478  0.17205565  0.74047348     0.75000
O261        O  0.32813754  0.21971317  0.60787389    -0.38500
O262        O  0.28394811  0.21605337  0.59235957    -0.38400
O263        O  0.23093118  0.18568115  0.75597985    -0.39100
O264        O  0.23475332  0.14425866  0.74874083    -0.39200
C265        C  0.28571748  0.18929039  0.80248040    -0.11500
C266        C  0.30434862  0.19642316  0.77378573     0.05500
C267        C  0.32071196  0.22794106  0.76171138    -0.06800
C268        C  0.31675085  0.25094659  0.77709604    -0.07500
C269        C  0.29707010  0.24341201  0.80466073    -0.02100
C270        C  0.28153050  0.21241582  0.81759321     0.04800
N271        N  0.26045729  0.20387508  0.84513856     0.67300
H272        H  0.27279411  0.16524501  0.81195997     0.16200
H273        H  0.32941760  0.27503311  0.76767938     0.15900
N274        N  0.34295272  0.23747727  0.73518345     0.77200
O275        O  0.23303299  0.19950584  0.84105766    -0.38500
O276        O  0.26784636  0.19726904  0.87261666    -0.38400
O277        O  0.34173712  0.25367807  0.71156923    -0.39100
O278        O  0.36817465  0.23730080  0.73989093    -0.39200
C279        C  0.22389520  0.08558629  0.70265700    -0.11500
C280        C  0.24763413  0.08089924  0.71561570     0.05500
C281        C  0.24156030  0.04986476  0.71873724    -0.06800
C282        C  0.21187522  0.02431848  0.70997661    -0.07500
C283        C  0.18671501  0.02849025  0.70034272    -0.02100
C284        C  0.19313170  0.05991102  0.69661341     0.04800
N285        N  0.16844640  0.06639561  0.68961241     0.67300
H286        H  0.22843112  0.10941597  0.70011038     0.16200
H287        H  0.20867360  0.00093748  0.71084162     0.15900
N288        N  0.26530749  0.04373552  0.73043401     0.75000
O289        O  0.14366523  0.05386691  0.70719200    -0.38500
O290        O  0.17347039  0.08831156  0.66966416    -0.38400
O291        O  0.25988158  0.02703180  0.75610407    -0.39100
O292        O  0.28645491  0.04674634  0.71063582    -0.39200
C293        C  0.22672385  0.08138946  0.78710998    -0.11500
C294        C  0.25873361  0.09052551  0.78912201     0.05500
C295        C  0.26788278  0.07519987  0.81224651    -0.06800
C296        C  0.24451686  0.04940321  0.83068903    -0.07500
C297        C  0.21211551  0.03869491  0.82648436    -0.02100
C298        C  0.20336838  0.05528737  0.80455933     0.04800
N299        N  0.17087970  0.04358250  0.79621532     0.67300
H300        H  0.21922765  0.09261291  0.76943968     0.16200
H301        H  0.25160742  0.03691944  0.84741457     0.15900
N302        N  0.30036364  0.08397789  0.81562323     0.75000
O303        O  0.16073437  0.06242742  0.79489491    -0.38500
O304        O  0.15490916  0.01677990  0.78291923    -0.38400
O305        O  0.31876334  0.10766210  0.83287511    -0.39100
O306        O  0.30859536  0.06446322  0.80802397    -0.39200
C307        C  0.40756934  0.17051927  0.81292960    -0.11500
C308        C  0.41282529  0.14529318  0.80901632     0.05500
C309        C  0.39340905  0.12082507  0.78687388    -0.06800
C310        C  0.36914806  0.12196555  0.76968889    -0.07500
C311        C  0.36448301  0.14763628  0.77289508    -0.02100
C312        C  0.38364626  0.17182746  0.79534403     0.04800
N313        N  0.37993658  0.19844722  0.79992947     0.67300
H314        H  0.42243905  0.18959969  0.82961401     0.16200
H315        H  0.35385415  0.10261033  0.75359178     0.15900
N316        N  0.39911256  0.09568586  0.78009444     0.75000
O317        O  0.36104357  0.19708134  0.82184544    -0.38500
O318        O  0.40141988  0.22521690  0.78952315    -0.38400
O319        O  0.37608437  0.06761290  0.77770984    -0.39100
O320        O  0.42646751  0.10206486  0.77148050    -0.39200
C321        C  0.04732696  0.19378728  0.80025783    -0.11500
C322        C  0.02901178  0.20047417  0.82135402     0.05500
C323        C  0.03820309  0.23215130  0.82721777    -0.06800
C324        C  0.06473866  0.25632941  0.81097726    -0.07500
C325        C  0.08268824  0.24993056  0.78918518    -0.02100
C326        C  0.07394868  0.21810584  0.78386262     0.04800
N327        N  0.08981541  0.20994392  0.75978615     0.67300
H328        H  0.03974667  0.16931713  0.79496902     0.16200
H329        H  0.06982101  0.28054203  0.81317359     0.15900
N330        N  0.01983338  0.23988948  0.84823561     0.75000
O331        O  0.11929951  0.22118325  0.76164323    -0.38500
O332        O  0.07386003  0.18866955  0.73890342    -0.38400
O333        O  0.01656052  0.23230723  0.87842997    -0.39100
O334        O  0.50938925  0.25700658  0.83718723    -0.39200
C335        C  0.40679284  0.17362763  0.66763984    -0.11500
C336        C  0.40748408  0.14578479  0.66271131     0.05500
C337        C  0.38026900  0.11661309  0.67202711    -0.06800
C338        C  0.35505512  0.11642697  0.68829248    -0.07500
C339        C  0.35697069  0.14457240  0.69746642    -0.02100
C340        C  0.38280689  0.17342663  0.68624153     0.04800
N341        N  0.38616357  0.20293815  0.69499546     0.67300
H342        H  0.42620967  0.19623806  0.65905483     0.16200
H343        H  0.33516917  0.09419386  0.69644926     0.15900
N344        N  0.37889133  0.08717760  0.66859532     0.75000
O345        O  0.41069028  0.22293760  0.71034975    -0.38500
O346        O  0.36970407  0.21202876  0.68012002    -0.38400
O347        O  0.38534105  0.07575037  0.69326679    -0.39100
O348        O  0.36294878  0.06911893  0.64523362    -0.39200
C349        C  0.05322874  0.21644999  0.66912928    -0.11500
C350        C  0.02317146  0.20125134  0.68411069     0.05500
C351        C  0.01968785  0.21321336  0.71455658    -0.06800
C352        C  0.04526211  0.24078129  0.72761490    -0.07500
C353        C  0.07602172  0.25411564  0.71459043    -0.02100
C354        C  0.07961703  0.24207146  0.68430445     0.04800
N355        N  0.10977215  0.25468090  0.66871222     0.67300
H356        H  0.05645670  0.20826643  0.64552708     0.16200
H357        H  0.04129367  0.25058006  0.74958013     0.15900
N358        N  0.49124976  0.19698580  0.73355022     0.75000
O359        O  0.12605647  0.24228062  0.67532021    -0.38500
O360        O  0.11449755  0.26928679  0.64162896    -0.38400
O361        O  0.47839273  0.16765720  0.73905397    -0.39100
O362        O  0.47957807  0.21202048  0.74633183    -0.39200
C363        C  0.37659466  0.35240769  0.92281773    -0.11500
C364        C  0.38769431  0.38465190  0.91812908     0.05500
C365        C  0.37511989  0.39410995  0.89225328    -0.06800
C366        C  0.35152241  0.37131512  0.87189095    -0.07500
C367        C  0.33966882  0.33885308  0.87693157    -0.02100
C368        C  0.35221930  0.32935988  0.90309500     0.04800
N369        N  0.33936755  0.29658561  0.91121807     0.67300
H370        H  0.38571441  0.34499043  0.94312560     0.16200
H371        H  0.34291415  0.37918317  0.85151463     0.15900
N372        N  0.38700040  0.42687942  0.88552864     0.75000
O373        O  0.35766666  0.28668124  0.91880905    -0.38500
O374        O  0.30976308  0.27829671  0.91443349    -0.38400
O375        O  0.41456333  0.44408115  0.87377490    -0.39100
O376        O  0.36887801  0.43781178  0.88803168    -0.39200
C377        C  0.09392915  0.45211025  0.91040809    -0.11500
C378        C  0.10677910  0.47341971  0.88366219     0.05500
C379        C  0.09506770  0.49383393  0.87720998    -0.06800
C380        C  0.07238376  0.49367592  0.89835874    -0.07500
C381        C  0.05972388  0.47252295  0.92511150    -0.02100
C382        C  0.07068204  0.45146431  0.93111718     0.04800
N383        N  0.05967471  0.43040928  0.95905604     0.67300
H384        H  0.10294782  0.43668522  0.91611250     0.16200
H385        H  0.06338869  0.50915868  0.89284416     0.15900
N386        N  0.10409678  0.51310322  0.84797823     0.75000
O387        O  0.05076856  0.40160513  0.95545584    -0.38500
O388        O  0.06223317  0.44122919  0.98779331    -0.38400
O389        O  0.10091899  0.50042101  0.82018452    -0.39100
O390        O  0.10943262  0.54099789  0.84930307    -0.39200
C391        C  0.44412575  0.04342474  0.89704679    -0.11500
C392        C  0.46424191  0.05309079  0.92464572     0.05500
C393        C  0.48337912  0.08563587  0.93141202    -0.06800
C394        C  0.48275549  0.10779619  0.91002443    -0.07500
C395        C  0.46353876  0.09837852  0.88159936    -0.02100
C396        C  0.44407084  0.06563751  0.87506516     0.04800
N397        N  0.42609516  0.05457856  0.84513380     0.67300
H398        H  0.42976082  0.01843828  0.89145499     0.16200
H399        H  0.99683650  0.13248742  0.91599578     0.15900
N400        N  0.00236154  0.09631314  0.96056980     0.75000
O401        O  0.43950108  0.06569299  0.81765709    -0.38500
O402        O  0.39839702  0.03058011  0.84570743    -0.38400
O403        O  0.03089403  0.11864899  0.95861947    -0.39100
O404        O  0.99010747  0.08571840  0.98861952    -0.39200
C405        C  0.35385241  0.33413283  0.61380423    -0.11500
C406        C  0.32282489  0.32818889  0.60955093     0.05500
C407        C  0.31819686  0.34819231  0.58784902    -0.06800
C408        C  0.34438247  0.37354190  0.57181831    -0.07500
C409        C  0.37515006  0.37881893  0.57540651    -0.02100
C410        C  0.37985416  0.35890092  0.59692380     0.04800
N411        N  0.41092829  0.36402771  0.60280766     0.67300
H412        H  0.35824323  0.31995187  0.63105844     0.16200
H413        H  0.34032584  0.38821610  0.55488941     0.15900
N414        N  0.28703952  0.34220769  0.58025479     0.75000
O415        O  0.43316643  0.39087806  0.61176973    -0.38500
O416        O  0.41522923  0.34091430  0.60299410    -0.38400
O417        O  0.28204715  0.36485384  0.57874008    -0.39100
O418        O  0.26553697  0.31503648  0.57117271    -0.39200
C419        C  0.49443031  0.11079776  0.58938365    -0.11500
C420        C  0.47158093  0.10219050  0.61438813     0.05500
C421        C  0.44868983  0.06976662  0.61935675    -0.06800
C422        C  0.44737652  0.04724110  0.59745257    -0.07500
C423        C  0.46958023  0.05586356  0.57184328    -0.02100
C424        C  0.49379465  0.08801525  0.56823946     0.04800
N425        N  0.01706347  0.09810036  0.54260277     0.67300
H426        H  0.01196021  0.13539755  0.58550792     0.16200
H427        H  0.42975336  0.02248283  0.60144899     0.15900
N428        N  0.42792146  0.05918901  0.64757157     0.75000
O429        O  0.00860213  0.09278123  0.51274822    -0.38500
O430        O  0.04616046  0.11515534  0.54948279    -0.38400
O431        O  0.40064346  0.03467313  0.64580310    -0.39100
O432        O  0.43853688  0.07132769  0.67548480    -0.39200
C433        C  0.05767617  0.49163297  0.60531442    -0.11500
C434        C  0.04650799  0.46770477  0.58153926     0.05500
C435        C  0.05487589  0.44439759  0.58389657    -0.06800
C436        C  0.07383235  0.44524117  0.61017016    -0.07500
C437        C  0.08458520  0.46892960  0.63429203    -0.02100
C438        C  0.07598110  0.49212658  0.63200316     0.04800
N439        N  0.08388074  0.51505094  0.65753205     0.67300
H440        H  0.05058145  0.50909182  0.60420490     0.16200
H441        H  0.08083291  0.42771756  0.61128359     0.15900
N442        N  0.04537231  0.42054610  0.55921154     0.75000
O443        O  0.09190460  0.54312124  0.65011089    -0.38500
O444        O  0.07863362  0.50630754  0.68740983    -0.38400
O445        O  0.05425074  0.42839615  0.52964609    -0.39100
O446        O  0.03098126  0.39169254  0.56746203    -0.39200
C447        C  0.10925483  0.08896617  0.41362294    -0.11500
C448        C  0.10113561  0.09519867  0.38248870     0.05500
C449        C  0.06913796  0.07834182  0.37240969    -0.06800
C450        C  0.04585789  0.05569106  0.39349974    -0.07500
C451        C  0.05380587  0.04935505  0.42477763    -0.02100
C452        C  0.08598440  0.06625877  0.43480598     0.04800
N453        N  0.09556626  0.06018457  0.46602450     0.67300
H454        H  0.13381131  0.10185382  0.42153090     0.16200
H455        H  0.02137354  0.04309606  0.38536168     0.15900
N456        N  0.06004842  0.08361805  0.34053799     0.75000
O457        O  0.09402498  0.03416730  0.47121847    -0.38500
O458        O  0.10859517  0.08194605  0.48708676    -0.38400
O459        O  0.06716671  0.07406837  0.31499562    -0.39100
O460        O  0.04269810  0.09546113  0.33808714    -0.39200
C461        C  0.32629042  0.46113851  0.42019784    -0.11500
C462        C  0.32832602  0.45804386  0.38610766     0.05500
C463        C  0.35430001  0.45718660  0.37304467    -0.06800
C464        C  0.37800336  0.45962867  0.39403617    -0.07500
C465        C  0.37640030  0.46285645  0.42836680    -0.02100
C466        C  0.34999494  0.46354498  0.44143779     0.04800
N467        N  0.34698279  0.46710318  0.47601578     0.67300
H468        H  0.30643428  0.46214889  0.43029684     0.16200
H469        H  0.39771170  0.45883138  0.38321273     0.15900
N470        N  0.35696973  0.45399707  0.33835408     0.75000
O471        O  0.36172843  0.49427879  0.48868854    -0.38500
O472        O  0.32635388  0.44393443  0.49282047    -0.38400
O473        O  0.35460464  0.95989098  0.31843751    -0.39100
O474        O  0.34494404  0.42673928  0.32615752    -0.39200
C475        C  0.47801182  0.38976153  0.39418183    -0.11500
C476        C  0.46657152  0.38099052  0.42674739     0.05500
C477        C  0.45589868  0.34969656  0.43742679    -0.06800
C478        C  0.45600467  0.32791260  0.41546601    -0.07500
C479        C  0.46708797  0.33669775  0.38294890    -0.02100
C480        C  0.47828219  0.36799443  0.37220841     0.04800
N481        N  0.98944356  0.37791305  0.33878561     0.67300
H482        H  0.48632858  0.41361475  0.38547531     0.16200
H483        H  0.44744429  0.30391852  0.42389853     0.15900
N484        N  0.44416621  0.33936132  0.47020436     0.75000
O485        O  0.97271767  0.36165267  0.31476803    -0.38500
O486        O  0.01429766  0.40429561  0.33325171    -0.38400
O487        O  0.41464633  0.32419600  0.47555318    -0.39100
O488        O  0.46288442  0.34128264  0.49267110    -0.39200
C489        C  0.36061393  0.47189040  0.06084919    -0.11500
C490        C  0.38173587  0.46321471  0.07369214     0.05500
C491        C  0.37814845  0.45323833  0.10711087    -0.06800
C492        C  0.35401817  0.45207190  0.12664010    -0.07500
C493        C  0.33343473  0.46121272  0.11384141    -0.02100
C494        C  0.33687387  0.47126061  0.08068170     0.04800
N495        N  0.31613294  0.48050315  0.06675077     0.67300
H496        H  0.36278652  0.47967680  0.03538345     0.16200
H497        H  0.35160816  0.44437495  0.15217762     0.15900
N498        N  0.39820391  0.44334887  0.12145266     0.75000
O499        O  0.32399937  0.50922462  0.06683445    -0.38500
O500        O  0.29191467  0.46068491  0.05090562    -0.38400
O501        O  0.42199422  0.46263960  0.13819363    -0.39100
O502        O  0.38907010  0.41430921  0.12232306    -0.39200
C503        C  0.46376239  0.35288328  0.12335361    -0.11500
C504        C  0.46901645  0.33072705  0.10770512     0.05500
C505        C  0.47502968  0.33363256  0.07347463    -0.06800
C506        C  0.47580489  0.35850258  0.05556587    -0.07500
C507        C  0.47058487  0.38094076  0.07106132    -0.02100
C508        C  0.46478284  0.37796679  0.10557292     0.04800
N509        N  0.45967235  0.39999280  0.12307628     0.67300
H510        H  0.45939212  0.35102197  0.14974378     0.16200
H511        H  0.48021300  0.35997558  0.02921298     0.15900
N512        N  0.47928305  0.31080865  0.05637526     0.75000
O513        O  0.43224338  0.39144639  0.13359600    -0.38500
O514        O  0.48319631  0.42525321  0.13361787    -0.38400
O515        O  0.45610705  0.28296901  0.05286970    -0.39100
O516        O  0.00477853  0.31826603  0.04280022    -0.39200
C517        C  0.05486539  0.31424548  0.16880279    -0.11500
C518        C  0.02844751  0.28414998  0.16216850     0.05500
C519        C  0.02927223  0.25722851  0.17343500    -0.06800
C520        C  0.05170817  0.26110395  0.19730962    -0.07500
C521        C  0.07724542  0.29110962  0.20489665    -0.02100
C522        C  0.08003536  0.31764603  0.18824653     0.04800
N523        N  0.10818831  0.34806754  0.19042189     0.67300
H524        H  0.05590357  0.33542291  0.15965626     0.16200
H525        H  0.05040797  0.24053512  0.20863662     0.15900
N526        N  0.50861836  0.22652122  0.16015202     0.75000
O527        O  0.12954803  0.35553881  0.16897719    -0.38500
O528        O  0.10745736  0.36976746  0.20595577    -0.38400
O529        O  0.49919526  0.22369891  0.13064969    -0.39100
O530        O  0.50174692  0.20192915  0.17657921    -0.39200
C531        C  0.03183623  0.27404568  0.32421168    -0.11500
C532        C  0.02270196  0.29517490  0.31337458     0.05500
C533        C  0.03915595  0.31577383  0.28694099    -0.06800
C534        C  0.06383145  0.31438535  0.27137720    -0.07500
C535        C  0.07247570  0.29236428  0.28103952    -0.02100
C536        C  0.05666834  0.27266769  0.30884401     0.04800
N537        N  0.06454107  0.25050020  0.32165490     0.67300
H538        H  0.01914044  0.25799822  0.34460456     0.16200
H539        H  0.07666832  0.33118648  0.25162930     0.15900
N540        N  0.53012594  0.33737504  0.27510843     0.75000
O541        O  0.08297809  0.25856439  0.34612620    -0.38500
O542        O  0.04512334  0.22141514  0.31734631    -0.38400
O543        O  0.54200888  0.36455406  0.28749252    -0.39100
O544        O  0.51190098  0.33001169  0.25053025    -0.39200
C545        C  0.23736975  0.37537475  0.18912356    -0.11500
C546        C  0.23518581  0.40260543  0.18533032     0.05500
C547        C  0.20694004  0.40103314  0.19626009    -0.06800
C548        C  0.18384043  0.37432296  0.21327639    -0.07500
C549        C  0.18555175  0.34712977  0.21574020    -0.02100
C550        C  0.21237438  0.34746144  0.20311984     0.04800
N551        N  0.21468555  0.31981916  0.20419625     0.67300
H552        H  0.25851232  0.37556300  0.18134853     0.16200
H553        H  0.16337226  0.37415383  0.22328843     0.15900
N554        N  0.19975575  0.42483960  0.18768539     0.75000
O555        O  0.20543514  0.30178319  0.17951843    -0.38500
O556        O  0.23340867  0.31839261  0.22449932    -0.38400
O557        O  0.19956143  0.43161668  0.15761629    -0.39100
O558        O  0.18663899  0.43330605  0.20863500    -0.39200
C559        C  0.20090611  0.39446012  0.31463670    -0.11500
C560        C  0.23146894  0.39880270  0.31569786     0.05500
C561        C  0.23597986  0.37440757  0.30404841    -0.06800
C562        C  0.21018447  0.34681359  0.29109270    -0.07500
C563        C  0.18018072  0.34337347  0.28853216    -0.02100
C564        C  0.17532504  0.36699433  0.30129602     0.04800
N565        N  0.14478928  0.36384807  0.29995944     0.67300
H566        H  0.19691529  0.41264524  0.32401880     0.16200
H567        H  0.21402046  0.32883727  0.28086913     0.15900
N568        N  0.26694131  0.37839973  0.30237177     0.75000
O569        O  0.12389941  0.34627015  0.32079258    -0.38500
O570        O  0.14100874  0.38329232  0.28313709    -0.38400
O571        O  0.27094548  0.35606888  0.31105131    -0.39100
O572        O  0.28905135  0.40213727  0.28752190    -0.39200
C573        C  0.11170519  0.18253665  0.29698024    -0.11500
C574        C  0.13988298  0.19267640  0.31455776     0.05500
C575        C  0.16231021  0.22532136  0.31677013    -0.06800
C576        C  0.15574577  0.24712077  0.30198431    -0.07500
C577        C  0.12767897  0.23695774  0.28407455    -0.02100
C578        C  0.10546142  0.20414383  0.28120048     0.04800
N579        N  0.07726268  0.19221846  0.26142187     0.67300
H580        H  0.09477099  0.15739901  0.29479476     0.16200
H581        H  0.17329696  0.27215509  0.30329781     0.15900
N582        N  0.19199079  0.23663031  0.33329718     0.75000
O583        O  0.06592534  0.16590627  0.24711553    -0.38500
O584        O  0.06295790  0.20723895  0.25886945    -0.38400
O585        O  0.21767374  0.25561609  0.31872757    -0.39100
O586        O  0.19255597  0.22919656  0.36307816    -0.39200
C587        C  0.39718251  0.20549799  0.32795411    -0.11500
C588        C  0.40553264  0.23644007  0.31954509     0.05500
C589        C  0.38708157  0.24139687  0.29649276    -0.06800
C590        C  0.36162714  0.21549155  0.28098543    -0.07500
C591        C  0.35382669  0.18440418  0.28841313    -0.02100
C592        C  0.37133494  0.17946165  0.31291270     0.04800
N593        N  0.36560437  0.14855231  0.32012847     0.67300
H594        H  0.41165888  0.20159213  0.34529719     0.16200
H595        H  0.34889757  0.21973620  0.26176288     0.15900
N596        N  0.39561038  0.27267378  0.28657977     0.75000
O597        O  0.38546932  0.14135683  0.31053900    -0.38500
O598        O  0.34629226  0.13236008  0.34280826    -0.38400
O599        O  0.41134078  0.28455681  0.26038320    -0.39100
O600        O  0.38443959  0.28696666  0.30191741    -0.39200
C601        C  0.38969091  0.19396472  0.22539770    -0.11500
C602        C  0.35898502  0.18292218  0.21335614     0.05500
C603        C  0.35571328  0.19726738  0.18435803    -0.06800
C604        C  0.38280178  0.22195173  0.16871627    -0.07500
C605        C  0.41323845  0.23423091  0.18219674    -0.02100
C606        C  0.41614634  0.22083267  0.21222189     0.04800
N607        N  0.44513615  0.23511634  0.23088241     0.67300
H608        H  0.39301485  0.18278191  0.24683933     0.16200
H609        H  0.37980246  0.23147029  0.14573431     0.15900
N610        N  0.32540791  0.18845978  0.17088589     0.75000
O611        O  0.45355589  0.21802924  0.24572400    -0.38500
O612        O  0.46089347  0.26468153  0.23501866    -0.38400
O613        O  0.31742498  0.20900473  0.17010687    -0.39100
O614        O  0.31294147  0.16617526  0.15036691    -0.39200
C615        C  0.21628283  0.10398280  0.28304443    -0.11500
C616        C  0.24784162  0.12909489  0.28405891     0.05500
C617        C  0.25480932  0.15711209  0.30035971    -0.06800
C618        C  0.23032230  0.15986953  0.31431538    -0.07500
C619        C  0.19869418  0.13493290  0.31283047    -0.02100
C620        C  0.19167097  0.10646370  0.29726275     0.04800
N621        N  0.15968029  0.08039890  0.29438086     0.67300
H622        H  0.21059296  0.08254264  0.27034796     0.16200
H623        H  0.23606924  0.18175727  0.32633506     0.15900
N624        N  0.28637914  0.18362022  0.30178760     0.75000
O625        O  0.13840360  0.08465684  0.28251774    -0.38500
O626        O  0.15334029  0.05259349  0.30047797    -0.38400
O627        O  0.29396892  0.20701499  0.28301940    -0.39100
O628        O  0.30257906  0.18746490  0.32741844    -0.39200
C629        C  0.32688369  0.07002646  0.29120152    -0.11500
C630        C  0.30072580  0.07398966  0.28879999     0.05500
C631        C  0.27119744  0.05024500  0.30132679    -0.06800
C632        C  0.26796469  0.02261194  0.31496134    -0.07500
C633        C  0.29379841  0.01798505  0.31626764    -0.02100
C634        C  0.32377612  0.04223515  0.30451645     0.04800
N635        N  0.35068038  0.03825513  0.30379566     0.67300
H636        H  0.34944448  0.08785133  0.28084643     0.16200
H637        H  0.24491774  0.00437018  0.32409522     0.15900
N638        N  0.24377751  0.05293911  0.29862461     0.75000
O639        O  0.34832236  0.01386936  0.29102596    -0.38500
O640        O  0.37769525  0.06075990  0.31211541    -0.38400
O641        O  0.22336538  0.03720085  0.27684663    -0.39100
O642        O  0.23619336  0.06388201  0.32262397    -0.39200
C643        C  0.27425469  0.04989561  0.20632225    -0.11500
C644        C  0.30413891  0.07450088  0.21548601     0.05500
C645        C  0.33127281  0.07299215  0.20728284    -0.06800
C646        C  0.32731252  0.04575058  0.19172584    -0.07500
C647        C  0.29712077  0.02124464  0.18198180    -0.02100
C648        C  0.27060224  0.02460337  0.18754727     0.04800
N649        N  0.24059057  0.50277564  0.17289380     0.67300
H650        H  0.25366135  0.05079154  0.21346391     0.16200
H651        H  0.34787433  0.04369187  0.18721495     0.15900
N652        N  0.36269066  0.09849191  0.21471281     0.75000
O653        O  0.21513262  0.49769798  0.18615041    -0.38500
O654        O  0.23993366  0.49434073  0.14339585    -0.38400
O655        O  0.38417823  0.09281595  0.22235813    -0.39100
O656        O  0.37020503  0.12667091  0.20897012    -0.39200
C657        C  0.11353624  0.10510626  0.07175158    -0.11500
C658        C  0.11105711  0.10340478  0.10619206     0.05500
C659        C  0.08358297  0.07845929  0.12117044    -0.06800
C660        C  0.05886870  0.05582032  0.10158522    -0.07500
C661        C  0.06105246  0.05712300  0.06689083    -0.02100
C662        C  0.08896870  0.08229353  0.05201751     0.04800
N663        N  0.09296741  0.08510509  0.01696370     0.67300
H664        H  0.13458289  0.12433459  0.06011901     0.16200
H665        H  0.03800707  0.03689050  0.11376032     0.15900
N666        N  0.08060035  0.07579054  0.15638157     0.75000
O667        O  0.08450884  0.10150254  0.00083318    -0.38500
O668        O  0.10905602  0.07521192  0.00289985    -0.38400
O669        O  0.05855866  0.07721038  0.17060242    -0.39100
O670        O  0.09838663  0.06948105  0.17304392    -0.39200
C671        C  0.20111885  0.10880896  0.18168791    -0.11500
C672        C  0.20650973  0.13945743  0.17751049     0.05500
C673        C  0.23578503  0.16550848  0.18826205    -0.06800
C674        C  0.25655828  0.15998388  0.20673949    -0.07500
C675        C  0.25106623  0.12944539  0.21082089    -0.02100
C676        C  0.22367094  0.10378566  0.19694039     0.04800
N677        N  0.21870002  0.07268035  0.19684194     0.67300
H678        H  0.17923186  0.08845771  0.17324365     0.16200
H679        H  0.27779200  0.17970889  0.21718363     0.15900
N680        N  0.24570711  0.19736898  0.17863428     0.75000
O681        O  0.19883390  0.05226886  0.21672004    -0.38500
O682        O  0.22545104  0.06342521  0.17082951    -0.38400
O683        O  0.26392050  0.22017309  0.19705032    -0.39100
O684        O  0.24144000  0.20310261  0.14925601    -0.39200
C685        C  0.11765826  0.19564095  0.17555288    -0.11500
C686        C  0.14701328  0.19735227  0.17976529     0.05500
C687        C  0.17047429  0.22274242  0.19907083    -0.06800
C688        C  0.16272840  0.24229855  0.21628597    -0.07500
C689        C  0.13400020  0.24085084  0.21104995    -0.02100
C690        C  0.11195248  0.21828186  0.18909192     0.04800
N691        N  0.08418741  0.21851362  0.17930240     0.67300
H692        H  0.09875195  0.17707070  0.16132998     0.16200
H693        H  0.18016346  0.26025070  0.23247635     0.15900
N694        N  0.20308390  0.23150548  0.19880042     0.75000
O695        O  0.08735592  0.23989151  0.15959070    -0.38500
O696        O  0.05740726  0.19344428  0.18186906    -0.38400
O697        O  0.21817018  0.23994550  0.17185595    -0.39100
O698        O  0.21830040  0.23793513  0.22559225    -0.39200
C699        C  0.13487903  0.62797591  0.12823791     0.03900
C700        C  0.13260068  0.65362841  0.13910718    -0.12200
C701        C  0.15145288  0.67268008  0.16554764     0.01400
C702        C  0.17332528  0.66557510  0.17957029    -0.10700
C703        C  0.17908905  0.64307686  0.16549212     0.03900
C704        C  0.15904128  0.62368188  0.14028979    -0.10200
H705        H  0.11510944  0.65747063  0.12741983     0.09500
H706        H  0.18573594  0.67690665  0.20200772     0.07000
H707        H  0.16163813  0.60479891  0.13039591     0.06900
C708        C  0.30300296  0.62735528  0.21764429     0.46300
H709        H  0.30348678  0.62602491  0.19044203    -0.02800
C710        C  0.30083731  0.62814970  0.28201116     0.46300
H711        H  0.29948207  0.62839132  0.30934229    -0.02800
C712        C  0.30465380  0.60030522  0.23445349    -0.16500
C713        C  0.33080257  0.65765639  0.23261768    -0.16200
C714        C  0.27272735  0.62520659  0.23143858    -0.16600
C715        C  0.30266063  0.60011127  0.26818546    -0.16600
C716        C  0.32959907  0.65782719  0.26685213    -0.16100
C717        C  0.27207479  0.62652355  0.26523127    -0.16500
C718        C  0.13020242  0.79310995  0.21500868     0.46300
H719        H  0.13226755  0.79422835  0.18764860    -0.02800
C720        C  0.12595728  0.79105670  0.27929412     0.46300
H721        H  0.12549717  0.79104087  0.30654886    -0.02800
C722        C  0.10123655  0.79388080  0.22817989    -0.16500
C723        C  0.12740584  0.76324959  0.23030302    -0.16200
C724        C  0.15900257  0.82055354  0.23217924    -0.16600
C725        C  0.09854013  0.79243071  0.26229856    -0.16600
C726        C  0.12547867  0.76224210  0.26419524    -0.16100
C727        C  0.15641522  0.81973197  0.26585094    -0.16500
C728        C  0.46873056  0.80472936  0.12674899     0.03900
C729        C  0.49690705  0.80408801  0.13036743    -0.12200
C730        C  0.49741757  0.78059732  0.14991216     0.01400
C731        C  0.46868551  0.75659613  0.16334645    -0.10700
C732        C  0.44095286  0.75786114  0.16226725     0.03900
C733        C  0.44107851  0.78210957  0.14358724    -0.10200
H734        H  0.01849921  0.82213093  0.11834209     0.09500
H735        H  0.46814763  0.73757083  0.17701586     0.07000
H736        H  0.41991941  0.78364241  0.14222013     0.06900
C737        C  0.30898017  0.96177409  0.13395899     0.03900
C738        C  0.31338018  0.99067117  0.14524143    -0.12200
C739        C  0.29290636  0.99108906  0.16911803     0.01400
C740        C  0.26846600  0.96229139  0.18208006    -0.10700
C741        C  0.26195305  0.93309378  0.16945300     0.03900
C742        C  0.28286143  0.93313257  0.14556687    -0.10200
H743        H  0.33338618  0.51226344  0.13741519     0.09500
H744        H  0.25452905  0.96281048  0.20246848     0.07000
H745        H  0.27904244  0.91104440  0.13587314     0.06900
C746        C  0.46582661  0.81250666  0.36025219     0.03900
C747        C  0.49403890  0.81599665  0.34714760    -0.12200
C748        C  0.49276124  0.79256483  0.32647146     0.01400
C749        C  0.46330676  0.76611110  0.31869462    -0.10700
C750        C  0.43517747  0.76309944  0.33053635     0.03900
C751        C  0.43646022  0.78605192  0.35164785    -0.10200
H752        H  0.01683128  0.83673585  0.35320794     0.09500
H753        H  0.46223122  0.74817954  0.30254500     0.07000
H754        H  0.41463639  0.78354887  0.36102600     0.06900
C755        C  0.30456707  0.95788981  0.36436216     0.03900
C756        C  0.30868514  0.98678158  0.35345788    -0.12200
C757        C  0.28857330  0.98748256  0.32933214     0.01400
C758        C  0.26352260  0.95884477  0.31709700    -0.10700
C759        C  0.25867735  0.92967791  0.32840244     0.03900
C760        C  0.27935474  0.92940215  0.35219255    -0.10200
H761        H  0.32798277  0.50854252  0.36194769     0.09500
H762        H  0.24821054  0.95927719  0.29807328     0.07000
H763        H  0.27605538  0.90712595  0.36109263     0.06900
C764        C  0.12735727  0.62233318  0.36240323     0.03900
C765        C  0.15257974  0.61934709  0.35095494    -0.12200
C766        C  0.17446655  0.64120800  0.32798078     0.01400
C767        C  0.17174960  0.66706784  0.31783503    -0.10700
C768        C  0.14685317  0.67048245  0.32961920     0.03900
C769        C  0.12481125  0.64804984  0.35190126    -0.10200
H770        H  0.15444945  0.59936223  0.35897056     0.09500
H771        H  0.18796473  0.68357059  0.29945462     0.07000
H772        H  0.10513989  0.65020532  0.36047331     0.06900
Zn773      Zn  0.46354081  0.92725901  0.51801621     1.49700
Zn774      Zn  0.00342410  0.50406009  0.51554569     1.49400
Zn775      Zn  0.46383206  0.96494625  0.45326198     1.49100
Zn776      Zn  0.42766030  0.96619422  0.51877853     1.49500
O777        O  0.46436848  0.96527654  0.50148572    -1.83300
O778        O  0.00177555  0.93982152  0.54690170    -0.74000
O779        O  0.03237227  0.52883332  0.47790543    -0.73800
O780        O  0.46449196  0.92715654  0.43579352    -0.73300
O781        O  0.02739614  0.99241527  0.54636321    -0.74000
O782        O  0.46427694  0.90059497  0.48033378    -0.73600
O783        O  0.00382708  0.50461068  0.43362635    -0.74200
O784        O  0.39956885  0.96445641  0.48156112    -0.73500
O785        O  0.49376173  0.53350870  0.54025358    -0.74300
O786        O  0.42439075  0.96310376  0.43644137    -0.73700
O787        O  0.44128074  0.50622040  0.54515250    -0.74200
O788        O  0.40064239  0.92833534  0.54803965    -0.74100
O789        O  0.42421556  0.90022649  0.54609904    -0.73900
C790        C  0.02450713  0.96657873  0.55641192     0.77900
C791        C  0.02909287  0.52675228  0.44671040     0.78400
C792        C  0.46475973  0.90378650  0.44901530     0.77400
C793        C  0.40110743  0.96307877  0.45028309     0.77800
C794        C  0.46818708  0.53083114  0.55098405     0.78900
C795        C  0.40185442  0.90400490  0.55626004     0.77900
Zn796      Zn  0.00682817  0.50753794  0.97920836     1.49700
Zn797      Zn  0.47146131  0.93133542  0.98141373     1.49400
Zn798      Zn  0.47135992  0.96865053  0.04580662     1.49100
Zn799      Zn  0.43136142  0.96623946  0.98160386     1.49500
O800        O  0.47030510  0.96835694  0.99709428    -1.83300
O801        O  0.03415634  0.99662552  0.94997419    -0.74000
O802        O  0.47051895  0.90413901  0.01928362    -0.73800
O803        O  0.01085129  0.50820142  0.06216505    -0.73300
O804        O  0.01165609  0.94455201  0.95571261    -0.74000
O805        O  0.03476366  0.53461449  0.01625378    -0.73600
O806        O  0.47156128  0.93000660  0.06423513    -0.74200
O807        O  0.40396172  0.96419015  0.02017790    -0.73500
O808        O  0.43410358  0.90423549  0.95149657    -0.74300
O809        O  0.43217675  0.96742427  0.06452280    -0.73700
O810        O  0.40666556  0.92866958  0.95193518    -0.74200
O811        O  0.44049770  0.50536894  0.95490224    -0.74100
O812        O  0.49316886  0.53399319  0.95287644    -0.73900
C813        C  0.03382806  0.97101578  0.94453564     0.77900
C814        C  0.47099565  0.90647476  0.05061826     0.78400
C815        C  0.03380684  0.53215131  0.04761087     0.77400
C816        C  0.40749498  0.96528671  0.05146429     0.77800
C817        C  0.41065435  0.90652637  0.94195753     0.78900
C818        C  0.46608083  0.52992047  0.94547022     0.77900
C819        C  0.47080113  0.62797354  0.63286041     0.03900
C820        C  0.44157606  0.62664663  0.63550188    -0.12200
C821        C  0.43894127  0.64914757  0.65393990     0.01400
C822        C  0.46670923  0.67463139  0.66717635    -0.10700
C823        C  0.49595177  0.67624321  0.66590546     0.03900
C824        C  0.49793768  0.65279213  0.64823469    -0.10200
H825        H  0.42099013  0.60798557  0.62309562     0.09500
H826        H  0.46547300  0.69308166  0.67991756     0.07000
H827        H  0.02018831  0.65295745  0.64757321     0.06900
C828        C  0.46547157  0.62425492  0.85917448     0.03900
C829        C  0.43803406  0.62263753  0.84582220    -0.12200
C830        C  0.44077226  0.64726328  0.82539108     0.01400
C831        C  0.47083817  0.67383937  0.81963722    -0.10700
C832        C  0.49817114  0.67539411  0.83191802     0.03900
C833        C  0.49544742  0.65056051  0.85131010    -0.10200
H834        H  0.41472652  0.60252215  0.85134407     0.09500
H835        H  0.47312825  0.69285637  0.80414596     0.07000
H836        H  0.01666876  0.65156196  0.86015171     0.06900
C837        C  0.30011869  0.63571375  0.70888210     0.46300
H838        H  0.29620771  0.63178454  0.68188145    -0.02800
C839        C  0.30897808  0.64402552  0.77235696     0.46300
H840        H  0.31209950  0.64712844  0.79942095    -0.02800
C841        C  0.29699234  0.66321447  0.72178701    -0.16500
C842        C  0.27597262  0.60708453  0.72941686    -0.16200
C843        C  0.33294542  0.64259302  0.72047313    -0.16600
C844        C  0.30311840  0.66856979  0.75518609    -0.16600
C845        C  0.28055639  0.61154901  0.76299273    -0.16100
C846        C  0.33736456  0.64625779  0.75415106    -0.16500
C847        C  0.13223791  0.80979876  0.71978445     0.46300
H848        H  0.12996862  0.81186072  0.69288030    -0.02800
C849        C  0.13649515  0.80595614  0.78361008     0.46300
H850        H  0.13783375  0.80486991  0.81053236    -0.02800
C851        C  0.10433141  0.77932060  0.73452701    -0.16500
C852        C  0.16207424  0.80868602  0.73091231    -0.16200
C853        C  0.13245963  0.83696500  0.73947262    -0.16600
C854        C  0.10693626  0.77728237  0.76831916    -0.16600
C855        C  0.16451928  0.80778426  0.76520483    -0.16100
C856        C  0.13607327  0.83533631  0.77294095    -0.16500
C857        C  0.10683951  0.97030975  0.66023034     0.03900
C858        C  0.13543754  0.99849155  0.66753249    -0.12200
C859        C  0.15485821  0.99960090  0.69370884     0.01400
C860        C  0.14529146  0.97150270  0.71162837    -0.10700
C861        C  0.11914415  0.94263835  0.70180060     0.03900
C862        C  0.09926927  0.94227804  0.67699716    -0.10200
H863        H  0.14179330  0.51806783  0.65211229     0.09500
H864        H  0.15951728  0.97138067  0.73181321     0.07000
H865        H  0.07887687  0.91991400  0.66961952     0.06900
C866        C  0.29687097  0.80175775  0.62971391     0.03900
C867        C  0.27283302  0.80523883  0.64398032    -0.12200
C868        C  0.24540665  0.77908708  0.65741585     0.01400
C869        C  0.24241412  0.74929774  0.65617452    -0.10700
C870        C  0.26875097  0.74640532  0.64848853     0.03900
C871        C  0.29558160  0.77277834  0.63416296    -0.10200
H872        H  0.27573119  0.82851468  0.64485062     0.09500
H873        H  0.22030057  0.72878042  0.66406707     0.07000
H874        H  0.31595039  0.77128399  0.62735178     0.06900
C875        C  0.31425911  0.81374313  0.85514409     0.03900
C876        C  0.28957247  0.81817550  0.84449802    -0.12200
C877        C  0.26694738  0.79735657  0.82195652     0.01400
C878        C  0.26816034  0.77125183  0.81068769    -0.10700
C879        C  0.29262284  0.76654371  0.82085862     0.03900
C880        C  0.31591677  0.78806030  0.84261211    -0.10200
H881        H  0.28795136  0.83790221  0.85359249     0.09500
H882        H  0.25055140  0.75505945  0.79335255     0.07000
H883        H  0.33560482  0.78510652  0.84918714     0.06900
C884        C  0.13434074  0.97578047  0.86451042     0.03900
C885        C  0.13414395  0.94853069  0.85391412    -0.12200
C886        C  0.16115413  0.95044196  0.83882453     0.01400
C887        C  0.18833741  0.98078919  0.83493045    -0.10700
C888        C  0.18748241  0.00818016  0.84141436     0.03900
C889        C  0.16106358  0.00559092  0.85759500    -0.10200
H890        H  0.11233986  0.92601173  0.85690147     0.09500
H891        H  0.21024906  0.98393083  0.82577184     0.07000
H892        H  0.16164873  0.52679440  0.86463513     0.06900
C893        C  0.22226193  0.82606038  0.77057984    -0.11500
C894        C  0.19120613  0.80749342  0.78328548     0.05500
C895        C  0.18652884  0.78804325  0.81151874    -0.06800
C896        C  0.21180862  0.78570567  0.82394450    -0.07500
C897        C  0.24194905  0.80284922  0.80984928    -0.02100
C898        C  0.24742611  0.82368116  0.78341734     0.04800
N899        N  0.27817111  0.84159599  0.76859298     0.67300
H900        H  0.22687754  0.84193173  0.74988320     0.16200
H901        H  0.20776279  0.77003196  0.84470581     0.15900
N902        N  0.15672874  0.77020419  0.82824415     0.75000
O903        O  0.28295756  0.83476648  0.74005493    -0.38500
O904        O  0.30032715  0.86489088  0.78357105    -0.38400
O905        O  0.14136117  0.74052937  0.82533632    -0.39100
O906        O  0.15245918  0.78180193  0.85401966    -0.39200
C907        C  0.21334247  0.80492660  0.66087847    -0.11500
C908        C  0.22090291  0.78342250  0.67425808     0.05500
C909        C  0.20589532  0.76768748  0.70410164    -0.06800
C910        C  0.18411454  0.77391221  0.71921192    -0.07500
C911        C  0.17978164  0.79862801  0.70831329    -0.02100
C912        C  0.19394431  0.81336010  0.67772227     0.04800
N913        N  0.19073975  0.83797944  0.66342012     0.67300
H914        H  0.22358052  0.81637975  0.63741701     0.16200
H915        H  0.17256921  0.76103673  0.74158298     0.15900
N916        N  0.21498207  0.74820802  0.72154995     0.75000
O917        O  0.21586164  0.86405055  0.65745146    -0.38500
O918        O  0.16674181  0.83031554  0.64573956    -0.38400
O919        O  0.24377929  0.75933591  0.72884378    -0.39100
O920        O  0.19406310  0.72277028  0.73512667    -0.39200
C921        C  0.13743444  0.89124754  0.83932747    -0.11500
C922        C  0.15969163  0.92100713  0.82563770     0.05500
C923        C  0.17812458  0.92099506  0.79846266    -0.06800
C924        C  0.17145082  0.89247827  0.78430562    -0.07500
C925        C  0.14614798  0.86330756  0.79506154    -0.02100
C926        C  0.13024941  0.86270297  0.82431846     0.04800
N927        N  0.10606041  0.83379854  0.83887851     0.67300
H928        H  0.12483223  0.88974740  0.86178535     0.16200
H929        H  0.18540534  0.89335839  0.76329898     0.15900
N930        N  0.20301681  0.94920472  0.78349282     0.75000
O931        O  0.11412914  0.81778394  0.85627240    -0.38500
O932        O  0.07879195  0.82982002  0.84305099    -0.38400
O933        O  0.23144336  0.95745918  0.78955682    -0.39100
O934        O  0.19708254  0.96000742  0.75800337    -0.39200
C935        C  0.13981249  0.90776831  0.69215640    -0.11500
C936        C  0.11884106  0.91330308  0.70984746     0.05500
C937        C  0.09965309  0.89177435  0.73456573    -0.06800
C938        C  0.10225344  0.86515521  0.74116927    -0.07500
C939        C  0.12552609  0.86103226  0.72539753    -0.02100
C940        C  0.14421781  0.88272204  0.70031612     0.04800
N941        N  0.17052668  0.88259373  0.68579082     0.67300
H942        H  0.15480651  0.92473130  0.67338939     0.16200
H943        H  0.08782138  0.84894182  0.76069449     0.15900
N944        N  0.07919262  0.89767565  0.75445681     0.75000
O945        O  0.17697053  0.89031409  0.65572993    -0.38500
O946        O  0.19191142  0.88429393  0.70443608    -0.38400
O947        O  0.05115675  0.87565442  0.76049923    -0.39100
O948        O  0.09025337  0.92369914  0.76928024    -0.39200
C949        C  0.29790524  0.68967662  0.66845591    -0.11500
C950        C  0.28487668  0.67940424  0.70019272     0.05500
C951        C  0.26071141  0.68494431  0.71057811    -0.06800
C952        C  0.25464355  0.70506505  0.69186627    -0.07500
C953        C  0.27043167  0.71879561  0.66192367    -0.02100
C954        C  0.29055253  0.70876187  0.64887440     0.04800
N955        N  0.30303455  0.71692839  0.61584758     0.67300
H956        H  0.31415876  0.68305452  0.65886722     0.16200
H957        H  0.23778992  0.71050512  0.70184449     0.15900
N958        N  0.24179048  0.67036527  0.73969495     0.75000
O959        O  0.33003060  0.72112236  0.60919018    -0.38500
O960        O  0.28611042  0.71750885  0.59269207    -0.38400
O961        O  0.22968429  0.68370894  0.75524071    -0.39100
O962        O  0.23378602  0.64249281  0.74762899    -0.39200
C963        C  0.28427966  0.68714278  0.80242702    -0.11500
C964        C  0.30310971  0.69461348  0.77384168     0.05500
C965        C  0.31962373  0.72628601  0.76225012    -0.06800
C966        C  0.31573615  0.74915752  0.77806958    -0.07500
C967        C  0.29590259  0.74134325  0.80555795    -0.02100
C968        C  0.28002493  0.71009851  0.81791824     0.04800
N969        N  0.25856804  0.70112302  0.84521792     0.67300
H970        H  0.27121412  0.66295243  0.81148366     0.16200
H971        H  0.32857711  0.77337436  0.76903498     0.15900
N972        N  0.34196680  0.73609589  0.73578998     0.77200
O973        O  0.23297108  0.70099076  0.84196605    -0.38500
O974        O  0.26304505  0.68931987  0.87090847    -0.38400
O975        O  0.34112728  0.75288530  0.71258290    -0.39100
O976        O  0.36688710  0.73529023  0.74019977    -0.39200
C977        C  0.22366143  0.58456494  0.70152733    -0.11500
C978        C  0.24731316  0.57972768  0.71445540     0.05500
C979        C  0.24098234  0.54860638  0.71773608    -0.06800
C980        C  0.21104809  0.52313619  0.70947498    -0.07500
C981        C  0.18597625  0.52752054  0.70004507    -0.02100
C982        C  0.19272018  0.55902233  0.69590783     0.04800
N983        N  0.16821203  0.56577157  0.68894204     0.67300
H984        H  0.22840539  0.60845132  0.69876562     0.16200
H985        H  0.20758182  0.49965222  0.71052329     0.15900
N986        N  0.26476211  0.54234222  0.72900421     0.75000
O987        O  0.14363641  0.55376274  0.70681469    -0.38500
O988        O  0.17323112  0.58740218  0.66859158    -0.38400
O989        O  0.25930657  0.52500262  0.75415591    -0.39100
O990        O  0.28632016  0.54633685  0.70924351    -0.39200
C991        C  0.22613741  0.57964709  0.78600381    -0.11500
C992        C  0.25815207  0.58883086  0.78804686     0.05500
C993        C  0.26740858  0.57377618  0.81137765    -0.06800
C994        C  0.24416701  0.54833350  0.83026412    -0.07500
C995        C  0.21176402  0.53763882  0.82618719    -0.02100
C996        C  0.20286440  0.55376721  0.80377626     0.04800
N997        N  0.17032032  0.54182920  0.79541287     0.67300
H998        H  0.21859918  0.59071113  0.76817547     0.16200
H999        H  0.25133850  0.53608362  0.84722518     0.15900
N1000       N  0.29987256  0.58246134  0.81453225     0.75000
O1001       O  0.16027031  0.56068788  0.79277730    -0.38500
O1002       O  0.15408443  0.51443434  0.78346477    -0.38400
O1003       O  0.31823786  0.60565591  0.83238076    -0.39100
O1004       O  0.30812276  0.56319162  0.80595722    -0.39200
C1005       C  0.40761976  0.67073296  0.81207241    -0.11500
C1006       C  0.41302474  0.64558229  0.80844320     0.05500
C1007       C  0.39358059  0.62082930  0.78659601    -0.06800
C1008       C  0.36905015  0.62155540  0.76952929    -0.07500
C1009       C  0.36413639  0.64707453  0.77254632    -0.02100
C1010       C  0.38342861  0.67164763  0.79459513     0.04800
N1011       N  0.37962036  0.69825673  0.79887707     0.67300
H1012       H  0.42252866  0.69002319  0.82852369     0.16200
H1013       H  0.35376838  0.60202155  0.75361369     0.15900
N1014       N  0.39955238  0.59584537  0.77993769     0.75000
O1015       O  0.35927138  0.69628415  0.81924376    -0.38500
O1016       O  0.40192786  0.72531978  0.79022262    -0.38400
O1017       O  0.37667407  0.56770471  0.77746209    -0.39100
O1018       O  0.42700253  0.60243621  0.77143568    -0.39200
C1019       C  0.04795346  0.69476724  0.80074736    -0.11500
C1020       C  0.02933104  0.70150510  0.82134755     0.05500
C1021       C  0.03822764  0.73319971  0.82666067    -0.06800
C1022       C  0.06488278  0.75739717  0.81049416    -0.07500
C1023       C  0.08305360  0.75083926  0.78914415    -0.02100
C1024       C  0.07455258  0.71904989  0.78430036     0.04800
N1025       N  0.09049268  0.71078109  0.76043881     0.67300
H1026       H  0.04061093  0.67036552  0.79576965     0.16200
H1027       H  0.06984357  0.78126883  0.81235772     0.15900
N1028       N  0.01948158  0.74099757  0.84703147     0.75000
O1029       O  0.11870936  0.71785145  0.76533706    -0.38500
O1030       O  0.07472033  0.69156431  0.73779961    -0.38400
O1031       O  0.01531674  0.73311611  0.87716018    -0.39100
O1032       O  0.50938717  0.75833031  0.83506488    -0.39200
C1033       C  0.40664925  0.67343050  0.66731129    -0.11500
C1034       C  0.40769575  0.64576836  0.66249087     0.05500
C1035       C  0.38070128  0.61646970  0.67192489    -0.06800
C1036       C  0.35531882  0.61600976  0.68812414    -0.07500
C1037       C  0.35687359  0.64402470  0.69715739    -0.02100
C1038       C  0.38255032  0.67298386  0.68592688     0.04800
N1039       N  0.38585399  0.70239158  0.69501304     0.67300
H1040       H  0.42592066  0.69612613  0.65872500     0.16200
H1041       H  0.33562605  0.59369499  0.69639803     0.15900
N1042       N  0.37977103  0.58722513  0.66876015     0.75000
O1043       O  0.40985208  0.72177149  0.71146801    -0.38500
O1044       O  0.37045010  0.71225510  0.67932474    -0.38400
O1045       O  0.38711248  0.57647358  0.69334660    -0.39100
O1046       O  0.36359482  0.56867437  0.64581465    -0.39200
C1047       C  0.05389230  0.71724696  0.66909144    -0.11500
C1048       C  0.02374890  0.70226309  0.68388552     0.05500
C1049       C  0.02022432  0.71448963  0.71416513    -0.06800
C1050       C  0.04589839  0.74198141  0.72726626    -0.07500
C1051       C  0.07670116  0.75501056  0.71447797    -0.02100
C1052       C  0.08031990  0.74276416  0.68434000     0.04800
N1053       N  0.11059669  0.75473241  0.66923492     0.67300
H1054       H  0.05720412  0.70886685  0.64565594     0.16200
H1055       H  0.04196082  0.75193919  0.74911878     0.15900
N1056       N  0.49158837  0.69844136  0.73287265     0.75000
O1057       O  0.12619551  0.74170813  0.67635301    -0.38500
O1058       O  0.11597300  0.76927155  0.64202182    -0.38400
O1059       O  0.47856532  0.66911848  0.73851339    -0.39100
O1060       O  0.48025638  0.71372028  0.74581632    -0.39200
C1061       C  0.37515038  0.85065185  0.92461434    -0.11500
C1062       C  0.38735350  0.88297652  0.91877800     0.05500
C1063       C  0.37574474  0.89236793  0.89193408    -0.06800
C1064       C  0.35197019  0.86947855  0.87177746    -0.07500
C1065       C  0.33905442  0.83699020  0.87790621    -0.02100
C1066       C  0.35062942  0.82753544  0.90500725     0.04800
N1067       N  0.33660101  0.79481791  0.91414455     0.67300
H1068       H  0.38353716  0.84332355  0.94565439     0.16200
H1069       H  0.34404140  0.87724191  0.85071030     0.15900
N1070       N  0.38884837  0.92512685  0.88401855     0.75000
O1071       O  0.35394337  0.78429015  0.92349357    -0.38500
O1072       O  0.30682009  0.77731744  0.91653743    -0.38400
O1073       O  0.41675153  0.94123880  0.87277588    -0.39100
O1074       O  0.37153003  0.93707270  0.88493992    -0.39200
C1075       C  0.09476712  0.95252328  0.91057734    -0.11500
C1076       C  0.10685323  0.97314864  0.88322252     0.05500
C1077       C  0.09418164  0.99259592  0.87596778    -0.06800
C1078       C  0.07138406  0.99233660  0.89703729    -0.07500
C1079       C  0.05956700  0.97195443  0.92446856    -0.02100
C1080       C  0.07139829  0.95174555  0.93118427     0.04800
N1081       N  0.06121105  0.93154877  0.95978277     0.67300
H1082       H  0.10448812  0.93780499  0.91681253     0.16200
H1083       H  0.06166560  0.00710103  0.89101086     0.15900
N1084       N  0.10242419  0.01094391  0.84609920     0.75000
O1085       O  0.05209391  0.90261678  0.95699873    -0.38500
O1086       O  0.06467501  0.94326034  0.98819441    -0.38400
O1087       O  0.10032021  0.99777265  0.81884439    -0.39100
O1088       O  0.10599148  0.03818694  0.84622033    -0.39200
C1089       C  0.44418248  0.54428387  0.89739851    -0.11500
C1090       C  0.46419353  0.55398583  0.92508958     0.05500
C1091       C  0.48336489  0.58656589  0.93174648    -0.06800
C1092       C  0.48282868  0.60868241  0.91019844    -0.07500
C1093       C  0.46373737  0.59922485  0.88169727    -0.02100
C1094       C  0.44426659  0.56646313  0.87524377     0.04800
N1095       N  0.42645577  0.55534490  0.84521953     0.67300
H1096       H  0.42981767  0.51928556  0.89185983     0.16200
H1097       H  0.99700929  0.63345297  0.91605846     0.15900
N1098       N  0.00252298  0.59744479  0.96086452     0.75000
O1099       O  0.44002409  0.56638591  0.81779524    -0.38500
O1100       O  0.39874274  0.53136739  0.84569710    -0.38400
O1101       O  0.03041003  0.62106087  0.95919720    -0.39100
O1102       O  0.99060286  0.58589914  0.98879140    -0.39200
C1103       C  0.35492628  0.83475940  0.61577867    -0.11500
C1104       C  0.32387139  0.82872586  0.61149669     0.05500
C1105       C  0.31915027  0.84868096  0.58982727    -0.06800
C1106       C  0.34524125  0.87394261  0.57366094    -0.07500
C1107       C  0.37600648  0.87921341  0.57713678    -0.02100
C1108       C  0.38086731  0.85951565  0.59881774     0.04800
N1109       N  0.41202142  0.86485911  0.60475426     0.67300
H1110       H  0.35935432  0.82062710  0.63306603     0.16200
H1111       H  0.34108731  0.88851027  0.55667425     0.15900
N1112       N  0.28797808  0.84271115  0.58236247     0.75000
O1113       O  0.43428260  0.89193246  0.61310785    -0.38500
O1114       O  0.41642298  0.84181481  0.60554459    -0.38400
O1115       O  0.28292460  0.86532969  0.58128033    -0.39100
O1116       O  0.26653886  0.81563985  0.57295655    -0.39200
C1117       C  0.49432340  0.61145878  0.58835947    -0.11500
C1118       C  0.47232149  0.60287042  0.61423717     0.05500
C1119       C  0.45002016  0.57040682  0.61998746    -0.06800
C1120       C  0.44844402  0.54772473  0.59811315    -0.07500
C1121       C  0.46978164  0.55630706  0.57166502    -0.02100
C1122       C  0.49337457  0.58856984  0.56711941     0.04800
N1123       N  0.01559482  0.59855469  0.54052985     0.67300
H1124       H  0.01144855  0.63601494  0.58410208     0.16200
H1125       H  0.43131424  0.52292765  0.60270088     0.15900
N1126       N  0.43005231  0.56001348  0.64883158     0.75000
O1127       O  0.00568520  0.59138611  0.51125765    -0.38500
O1128       O  0.04478936  0.61743699  0.54559974    -0.38400
O1129       O  0.40303235  0.53506859  0.64800887    -0.39100
O1130       O  0.44119086  0.57295320  0.67632034    -0.39200
C1131       C  0.05817662  0.99181463  0.60515466    -0.11500
C1132       C  0.04720517  0.96805929  0.58119903     0.05500
C1133       C  0.05614711  0.94516143  0.58309857    -0.06800
C1134       C  0.07542240  0.94618550  0.60913503    -0.07500
C1135       C  0.08592730  0.96964690  0.63349159    -0.02100
C1136       C  0.07679179  0.99247233  0.63162623     0.04800
N1137       N  0.08439426  0.01510146  0.65740839     0.67300
H1138       H  0.05066459  0.00896158  0.60437845     0.16200
H1139       H  0.08280934  0.92894884  0.60991566     0.15900
N1140       N  0.04687084  0.92154155  0.55819293     0.75000
O1141       O  0.09186452  0.04308159  0.65031365    -0.38500
O1142       O  0.07931328  0.00608529  0.68720884    -0.38400
O1143       O  0.05548214  0.92968576  0.52861456    -0.39100
O1144       O  0.03292388  0.89264647  0.56621028    -0.39200
C1145       C  0.11015984  0.59180285  0.41522223    -0.11500
C1146       C  0.10239082  0.59749750  0.38366891     0.05500
C1147       C  0.07072448  0.57963411  0.37276587    -0.06800
C1148       C  0.04737677  0.55648040  0.39343006    -0.07500
C1149       C  0.05491520  0.55073729  0.42521426    -0.02100
C1150       C  0.08682250  0.56868255  0.43605270     0.04800
N1151       N  0.09611504  0.56327722  0.46776112     0.67300
H1152       H  0.13450273  0.60539169  0.42370975     0.16200
H1153       H  0.02314242  0.54313618  0.38460255     0.15900
N1154       N  0.06208758  0.58439177  0.34045338     0.75000
O1155       O  0.09616507  0.53809297  0.47330201    -0.38500
O1156       O  0.10758449  0.58505439  0.48890966    -0.38400
O1157       O  0.06618530  0.57124399  0.31593289    -0.39100
O1158       O  0.04737990  0.59893309  0.33687928    -0.39200
C1159       C  0.32955066  0.96680551  0.41969490    -0.11500
C1160       C  0.32814518  0.95777340  0.38674498     0.05500
C1161       C  0.34982203  0.94947733  0.37513475    -0.06800
C1162       C  0.37300940  0.95104333  0.39638877    -0.07500
C1163       C  0.37530766  0.96102100  0.42926814    -0.02100
C1164       C  0.35279382  0.96843365  0.44107907     0.04800
N1165       N  0.35350704  0.97830485  0.47436001     0.67300
H1166       H  0.31276940  0.97306209  0.42871290     0.16200
H1167       H  0.38963877  0.94482872  0.38682474     0.15900
N1168       N  0.34921221  0.94039363  0.34151513     0.75000
O1169       O  0.37468884  0.00572518  0.48310853    -0.38500
O1170       O  0.33061115  0.96140584  0.49358458    -0.38400
O1171       O  0.37630563  0.47781372  0.32142695    -0.39100
O1172       O  0.34703526  0.91435361  0.33508604    -0.39200
C1173       C  0.47783119  0.88941880  0.39475863    -0.11500
C1174       C  0.46593841  0.88027052  0.42712836     0.05500
C1175       C  0.45478271  0.84877840  0.43736649    -0.06800
C1176       C  0.45498780  0.82719188  0.41518342    -0.07500
C1177       C  0.46655889  0.83636098  0.38284634    -0.02100
C1178       C  0.47812214  0.86784414  0.37253105     0.04800
N1179       N  0.98916956  0.87808273  0.33910566     0.67300
H1180       H  0.48646741  0.91343313  0.38638981     0.16200
H1181       H  0.44604815  0.80303151  0.42327176     0.15900
N1182       N  0.44233694  0.83803226  0.46985020     0.75000
O1183       O  0.97264767  0.86196843  0.31491589    -0.38500
O1184       O  0.01386313  0.90466152  0.33383332    -0.38400
O1185       O  0.41275253  0.82366703  0.47467679    -0.39100
O1186       O  0.46036036  0.83883307  0.49253042    -0.39200
C1187       C  0.36479112  0.97764167  0.06136529    -0.11500
C1188       C  0.38231284  0.96422134  0.07287826     0.05500
C1189       C  0.37495900  0.94954708  0.10436482    -0.06800
C1190       C  0.35030412  0.94806343  0.12324364    -0.07500
C1191       C  0.33296438  0.96158216  0.11176932    -0.02100
C1192       C  0.34042697  0.97659480  0.08051377     0.04800
N1193       N  0.32304050  0.99029095  0.06764394     0.67300
H1194       H  0.37002128  0.98902051  0.03729628     0.16200
H1195       H  0.34507109  0.93679748  0.14738107     0.15900
N1196       N  0.39166008  0.93518945  0.11717705     0.75000
O1197       O  0.33749810  0.01894747  0.05864915    -0.38500
O1198       O  0.29355432  0.97315354  0.06278612    -0.38400
O1199       O  0.41536685  0.95087700  0.13564668    -0.39100
O1200       O  0.37954745  0.90567420  0.11483349    -0.39200
C1201       C  0.46113733  0.85093428  0.12236069    -0.11500
C1202       C  0.46880948  0.83031435  0.10702187     0.05500
C1203       C  0.47778930  0.83524178  0.07344751    -0.06800
C1204       C  0.47883440  0.86040723  0.05591975    -0.07500
C1205       C  0.47098121  0.88110794  0.07107203    -0.02100
C1206       C  0.46244753  0.87631100  0.10492402     0.04800
N1207       N  0.45468962  0.89667949  0.12199741     0.67300
H1208       H  0.45462597  0.84765159  0.14828073     0.16200
H1209       H  0.48547871  0.86345589  0.03005148     0.15900
N1210       N  0.48487326  0.81422926  0.05651344     0.75000
O1211       O  0.42611983  0.88695855  0.12910704    -0.38500
O1212       O  0.47647835  0.92146348  0.13536422    -0.38400
O1213       O  0.46379518  0.78538994  0.05360492    -0.39100
O1214       O  0.01102899  0.82480500  0.04132302    -0.39200
C1215       C  0.05400513  0.81351487  0.16806459    -0.11500
C1216       C  0.02769765  0.78326483  0.16174510     0.05500
C1217       C  0.02856881  0.75659976  0.17384407    -0.06800
C1218       C  0.05097576  0.76099326  0.19799533    -0.07500
C1219       C  0.07644396  0.79118537  0.20513475    -0.02100
C1220       C  0.07911770  0.81736983  0.18786232     0.04800
N1221       N  0.10725399  0.84784373  0.18940152     0.67300
H1222       H  0.05507230  0.83452814  0.15835146     0.16200
H1223       H  0.04982925  0.74065994  0.20975529     0.15900
N1224       N  0.50801778  0.72577924  0.16061910     0.75000
O1225       O  0.12806503  0.85518234  0.16734112    -0.38500
O1226       O  0.10670513  0.86966087  0.20488813    -0.38400
O1227       O  0.49891065  0.72263409  0.13096923    -0.39100
O1228       O  0.50094318  0.70136864  0.17749152    -0.39200
C1229       C  0.03056980  0.77371184  0.32269728    -0.11500
C1230       C  0.02191816  0.79531310  0.31223744     0.05500
C1231       C  0.03950224  0.81709231  0.28696544    -0.06800
C1232       C  0.06483030  0.81624817  0.27208074    -0.07500
C1233       C  0.07271041  0.79349418  0.28113243    -0.02100
C1234       C  0.05587116  0.77277088  0.30792750     0.04800
N1235       N  0.06308855  0.74996026  0.32029528     0.67300
H1236       H  0.01723604  0.75708314  0.34237917     0.16200
H1237       H  0.07822408  0.83334669  0.25306571     0.15900
N1238       N  0.53185042  0.83991117  0.27632055     0.75000
O1239       O  0.08333158  0.75817483  0.34307045    -0.38500
O1240       O  0.04205183  0.72104240  0.31815385    -0.38400
O1241       O  0.55311254  0.86878402  0.27404211    -0.39100
O1242       O  0.50424500  0.83083990  0.26594999    -0.39200
C1243       C  0.23653767  0.87587859  0.18698255    -0.11500
C1244       C  0.23422943  0.90298977  0.18273699     0.05500
C1245       C  0.20591154  0.90141444  0.19338759    -0.06800
C1246       C  0.18303499  0.87496663  0.21099105    -0.07500
C1247       C  0.18493345  0.84790038  0.21409260    -0.02100
C1248       C  0.21168584  0.84813114  0.20140797     0.04800
N1249       N  0.21406286  0.82053803  0.20283955     0.67300
H1250       H  0.25769601  0.87606011  0.17927689     0.16200
H1251       H  0.16262108  0.87487071  0.22101592     0.15900
N1252       N  0.19854798  0.92496534  0.18406768     0.75000
O1253       O  0.20435849  0.80203554  0.17854252    -0.38500
O1254       O  0.23321752  0.81954724  0.22287111    -0.38400
O1255       O  0.19996051  0.93243459  0.15398022    -0.39100
O1256       O  0.18409148  0.93273707  0.20405495    -0.39200
C1257       C  0.20169405  0.89585648  0.31350074    -0.11500
C1258       C  0.23206987  0.89975323  0.31490698     0.05500
C1259       C  0.23637642  0.87525711  0.30310177    -0.06800
C1260       C  0.21047155  0.84796169  0.28977531    -0.07500
C1261       C  0.18065531  0.84493863  0.28706586    -0.02100
C1262       C  0.17607110  0.86873079  0.29977758     0.04800
N1263       N  0.14576643  0.86608055  0.29808808     0.67300
H1264       H  0.19786907  0.91412651  0.32296019     0.16200
H1265       H  0.21403811  0.82979795  0.27958917     0.15900
N1266       N  0.26714060  0.87864142  0.30206037     0.75000
O1267       O  0.12472887  0.84900724  0.31902482    -0.38500
O1268       O  0.14246528  0.88564724  0.28092035    -0.38400
O1269       O  0.27022629  0.85546131  0.30944128    -0.39100
O1270       O  0.29030457  0.90313698  0.28938904    -0.39200
C1271       C  0.11274440  0.68434026  0.29785539    -0.11500
C1272       C  0.14101081  0.69472956  0.31533059     0.05500
C1273       C  0.16338798  0.72743717  0.31712778    -0.06800
C1274       C  0.15662379  0.74902487  0.30209818    -0.07500
C1275       C  0.12842197  0.73859017  0.28434032    -0.02100
C1276       C  0.10632532  0.70572088  0.28186926     0.04800
N1277       N  0.07803714  0.69349060  0.26225977     0.67300
H1278       H  0.09584836  0.65917071  0.29590837     0.16200
H1279       H  0.17410612  0.77409147  0.30311939     0.15900
N1280       N  0.19320900  0.73902350  0.33345703     0.75000
O1281       O  0.06749814  0.66768886  0.24711588    -0.38500
O1282       O  0.06264982  0.70749017  0.26107773    -0.38400
O1283       O  0.21873558  0.75828285  0.31879901    -0.39100
O1284       O  0.19403308  0.73164853  0.36320232    -0.39200
C1285       C  0.39603965  0.70561840  0.32790184    -0.11500
C1286       C  0.40465260  0.73652301  0.31900758     0.05500
C1287       C  0.38678976  0.74143525  0.29516420    -0.06800
C1288       C  0.36148783  0.71546963  0.27959691    -0.07500
C1289       C  0.35328195  0.68437244  0.28765741    -0.02100
C1290       C  0.37040768  0.67952545  0.31269470     0.04800
N1291       N  0.36469664  0.64867282  0.32020680     0.67300
H1292       H  0.41025052  0.70177739  0.34567324     0.16200
H1293       H  0.34923073  0.71968309  0.25983943     0.15900
N1294       N  0.39581207  0.77267992  0.28453437     0.75000
O1295       O  0.38477864  0.64158470  0.31112086    -0.38500
O1296       O  0.34526134  0.63257407  0.34283289    -0.38400
O1297       O  0.40917165  0.78290318  0.25686882    -0.39100
O1298       O  0.38710582  0.78856052  0.30091891    -0.39200
C1299       C  0.38901920  0.69362045  0.22463266    -0.11500
C1300       C  0.35828190  0.68239666  0.21253811     0.05500
C1301       C  0.35497591  0.69649148  0.18333083    -0.06800
C1302       C  0.38203882  0.72113079  0.16761277    -0.07500
C1303       C  0.41245307  0.73358403  0.18116958    -0.02100
C1304       C  0.41542060  0.72048232  0.21136361     0.04800
N1305       N  0.44444895  0.73500584  0.23000120     0.67300
H1306       H  0.39239154  0.68261612  0.24620355     0.16200
H1307       H  0.37905595  0.73046810  0.14449209     0.15900
N1308       N  0.32468574  0.68742029  0.16961823     0.75000
O1309       O  0.45286730  0.71809340  0.24521431    -0.38500
O1310       O  0.46036712  0.76465101  0.23356302    -0.38400
O1311       O  0.31666278  0.70792226  0.16823329    -0.39100
O1312       O  0.31241340  0.66494024  0.14931625    -0.39200
C1313       C  0.21617998  0.60452248  0.28400616    -0.11500
C1314       C  0.24768315  0.62977005  0.28365122     0.05500
C1315       C  0.25496854  0.65840205  0.29875602    -0.06800
C1316       C  0.23086940  0.66147287  0.31323493    -0.07500
C1317       C  0.19926318  0.63637153  0.31318626    -0.02100
C1318       C  0.19192701  0.60739410  0.29857312     0.04800
N1319       N  0.15993188  0.58114281  0.29699194     0.67300
H1320       H  0.21022078  0.58263723  0.27210213     0.16200
H1321       H  0.23688397  0.68381138  0.32434961     0.15900
N1322       N  0.28634333  0.68530301  0.29803578     0.75000
O1323       O  0.13831205  0.58477030  0.28495757    -0.38500
O1324       O  0.15387116  0.55366443  0.30439700    -0.38400
O1325       O  0.29348728  0.70586670  0.27567673    -0.39100
O1326       O  0.30262952  0.69295028  0.32413615    -0.39200
C1327       C  0.32623850  0.57004709  0.29147370    -0.11500
C1328       C  0.29991083  0.57368302  0.28859033     0.05500
C1329       C  0.27021650  0.54936974  0.30016431    -0.06800
C1330       C  0.26705099  0.52161951  0.31343715    -0.07500
C1331       C  0.29311737  0.51737635  0.31534083    -0.02100
C1332       C  0.32322545  0.54216434  0.30444257     0.04800
N1333       N  0.35044826  0.53870289  0.30422096     0.67300
H1334       H  0.34891886  0.58822079  0.28168698     0.16200
H1335       H  0.24390440  0.50307519  0.32200119     0.15900
N1336       N  0.24265435  0.55177953  0.29716504     0.75000
O1337       O  0.34881596  0.51478093  0.29109434    -0.38500
O1338       O  0.37707542  0.56125359  0.31344983    -0.38400
O1339       O  0.22224924  0.53562515  0.27553931    -0.39100
O1340       O  0.23492686  0.56280630  0.32096506    -0.39200
C1341       C  0.27390222  0.54945973  0.20619523    -0.11500
C1342       C  0.30364071  0.57425198  0.21545343     0.05500
C1343       C  0.33096346  0.57290663  0.20781676    -0.06800
C1344       C  0.32735503  0.54558859  0.19286510    -0.07500
C1345       C  0.29731141  0.52082404  0.18316101    -0.02100
C1346       C  0.27059802  0.52400170  0.18801507     0.04800
N1347       N  0.24042263  0.00376676  0.17253868     0.67300
H1348       H  0.25316589  0.55029217  0.21286890     0.16200
H1349       H  0.34806216  0.54367399  0.18878536     0.15900
N1350       N  0.36222813  0.59871758  0.21513022     0.75000
O1351       O  0.21513115  0.99846832  0.18639634    -0.38500
O1352       O  0.23944318  0.99597848  0.14273329    -0.38400
O1353       O  0.38373833  0.59340709  0.22378320    -0.39100
O1354       O  0.36970849  0.62662412  0.20788642    -0.39200
C1355       C  0.10849816  0.60921802  0.07358345    -0.11500
C1356       C  0.10968131  0.60352950  0.10727642     0.05500
C1357       C  0.08614226  0.57463066  0.12127113    -0.06800
C1358       C  0.06169935  0.55192089  0.10156015    -0.07500
C1359       C  0.06010462  0.55735433  0.06763729    -0.02100
C1360       C  0.08410785  0.58649211  0.05365896     0.04800
N1361       N  0.08392962  0.59373432  0.01945112     0.67300
H1362       H  0.12650028  0.63149996  0.06273792     0.16200
H1363       H  0.04388845  0.52990498  0.11301059     0.15900
N1364       N  0.08643179  0.56838643  0.15576469     0.75000
O1365       O  0.06683856  0.60439222  0.00966645    -0.38500
O1366       O  0.10428160  0.59415940  0.00016054    -0.38400
O1367       O  0.07339844  0.57747685  0.17608121    -0.39100
O1368       O  0.09736624  0.55156725  0.16563030    -0.39200
C1369       C  0.19920092  0.60808937  0.18360303    -0.11500
C1370       C  0.20482753  0.63876715  0.17883299     0.05500
C1371       C  0.23463216  0.66489659  0.18820591    -0.06800
C1372       C  0.25593744  0.65955634  0.20585240    -0.07500
C1373       C  0.25020392  0.62900365  0.21057642    -0.02100
C1374       C  0.22210358  0.60314411  0.19809318     0.04800
N1375       N  0.21684722  0.57192297  0.19840873     0.67300
H1376       H  0.17690280  0.58767628  0.17611639     0.16200
H1377       H  0.27765991  0.67940201  0.21527059     0.15900
N1378       N  0.24445511  0.69660391  0.17806020     0.75000
O1379       O  0.19672949  0.55175711  0.21828917    -0.38500
O1380       O  0.22345798  0.56233744  0.17255082    -0.38400
O1381       O  0.26318065  0.71971607  0.19586556    -0.39100
O1382       O  0.23948679  0.70182160  0.14874370    -0.39200
C1383       C  0.11726299  0.69625637  0.17595036    -0.11500
C1384       C  0.14660672  0.69795443  0.18010911     0.05500
C1385       C  0.17020770  0.72342294  0.19918398    -0.06800
C1386       C  0.16260651  0.74313967  0.21628580    -0.07500
C1387       C  0.13383484  0.74165189  0.21116270    -0.02100
C1388       C  0.11166413  0.71898970  0.18937152     0.04800
N1389       N  0.08380035  0.71911067  0.17975776     0.67300
H1390       H  0.09825654  0.67755848  0.16192920     0.16200
H1391       H  0.18015712  0.76121168  0.23229384     0.15900
N1392       N  0.20276938  0.73200658  0.19882272     0.75000
O1393       O  0.08675749  0.74021957  0.15977422    -0.38500
O1394       O  0.05705477  0.69406507  0.18274110    -0.38400
O1395       O  0.21766997  0.73988352  0.17175973    -0.39100
O1396       O  0.21815528  0.73870837  0.22552043    -0.39200
C1397       C  0.63638499  0.12840067  0.12685623     0.03900
C1398       C  0.63322127  0.15329522  0.13862789    -0.12200
C1399       C  0.65206973  0.17239381  0.16506023     0.01400
C1400       C  0.67432927  0.16562198  0.17865525    -0.10700
C1401       C  0.68078492  0.14382363  0.16396175     0.03900
C1402       C  0.66119203  0.12481184  0.13824828    -0.10200
H1403       H  0.61518230  0.15658205  0.12743798     0.09500
H1404       H  0.68642984  0.17658599  0.20133775     0.07000
H1405       H  0.66430177  0.10641131  0.12787772     0.06900
C1406       C  0.80371958  0.12772399  0.21808312     0.46300
H1407       H  0.80435938  0.12660219  0.19086263    -0.02800
C1408       C  0.80125477  0.12814777  0.28244659     0.46300
H1409       H  0.79980869  0.12820497  0.30978415    -0.02800
C1410       C  0.80537198  0.10060080  0.23474228    -0.16500
C1411       C  0.83136906  0.15798755  0.23330171    -0.16200
C1412       C  0.77333172  0.12539363  0.23177868    -0.16600
C1413       C  0.80329121  0.10029208  0.26847961    -0.16600
C1414       C  0.83000814  0.15796035  0.26751894    -0.16100
C1415       C  0.77247405  0.12643653  0.26559606    -0.16500
C1416       C  0.63076468  0.29267050  0.21564203     0.46300
H1417       H  0.63323661  0.29418888  0.18831237    -0.02800
C1418       C  0.62559047  0.28970669  0.27985515     0.46300
H1419       H  0.62472862  0.28919269  0.30712179    -0.02800
C1420       C  0.60176502  0.29358614  0.22851225    -0.16500
C1421       C  0.62744309  0.26244954  0.23054170    -0.16200
C1422       C  0.65945138  0.31966328  0.23345674    -0.16600
C1423       C  0.59857266  0.29163798  0.26262776    -0.16600
C1424       C  0.62506314  0.26100497  0.26439708    -0.16100
C1425       C  0.65634992  0.31843022  0.26709475    -0.16500
C1426       C  0.96916276  0.30528311  0.12754642     0.03900
C1427       C  0.99742451  0.30477068  0.13099254    -0.12200
C1428       C  0.99810555  0.28137847  0.15057241     0.01400
C1429       C  0.96949425  0.25746504  0.16436030    -0.10700
C1430       C  0.94166569  0.25857950  0.16336201     0.03900
C1431       C  0.94164570  0.28272740  0.14460290    -0.10200
H1432       H  0.51902814  0.32334297  0.11935173     0.09500
H1433       H  0.96912976  0.23851692  0.17801267     0.07000
H1434       H  0.92047076  0.28423569  0.14330205     0.06900
C1435       C  0.80955165  0.46130546  0.13602990     0.03900
C1436       C  0.81375429  0.49018435  0.14694668    -0.12200
C1437       C  0.79330171  0.49061637  0.17080450     0.01400
C1438       C  0.76916940  0.46187633  0.18418677    -0.10700
C1439       C  0.76282808  0.43263386  0.17185586     0.03900
C1440       C  0.78370522  0.43265393  0.14793721    -0.10200
H1441       H  0.83319953  0.01267465  0.13638929     0.09500
H1442       H  0.75530835  0.46250411  0.20458834     0.07000
H1443       H  0.78007714  0.41057500  0.13843965     0.06900
C1444       C  0.96652582  0.31275095  0.36040891     0.03900
C1445       C  0.99479679  0.31614458  0.34766955    -0.12200
C1446       C  0.99365204  0.29265258  0.32723899     0.01400
C1447       C  0.96425123  0.26611409  0.31941837    -0.10700
C1448       C  0.93601838  0.26312134  0.33095962     0.03900
C1449       C  0.93719846  0.28624856  0.35175923    -0.10200
H1450       H  0.51744205  0.33669367  0.35430105     0.09500
H1451       H  0.96330586  0.24812217  0.30346560     0.07000
H1452       H  0.91533305  0.28382440  0.36088772     0.06900
C1453       C  0.80477189  0.45787959  0.36391367     0.03900
C1454       C  0.80893176  0.48659298  0.35231149    -0.12200
C1455       C  0.78838353  0.48696365  0.32848277     0.01400
C1456       C  0.76298732  0.45805508  0.31706944    -0.10700
C1457       C  0.75821457  0.42905394  0.32897986     0.03900
C1458       C  0.77921228  0.42919476  0.35265754    -0.10200
H1459       H  0.82822666  0.00861754  0.36273750     0.09500
H1460       H  0.74734279  0.45811191  0.29821666     0.07000
H1461       H  0.77600522  0.40708349  0.36199121     0.06900
C1462       C  0.62569977  0.11969398  0.36095384     0.03900
C1463       C  0.65114650  0.11697240  0.34970681    -0.12200
C1464       C  0.67324494  0.13915811  0.32711349     0.01400
C1465       C  0.67044006  0.16496185  0.31702269    -0.10700
C1466       C  0.64527272  0.16805474  0.32853629     0.03900
C1467       C  0.62307977  0.14538600  0.35050836    -0.10200
H1468       H  0.65310249  0.09701288  0.35762827     0.09500
H1469       H  0.68688061  0.18172898  0.29895982     0.07000
H1470       H  0.60331547  0.14742575  0.35899944     0.06900
Zn1471     Zn  0.96368852  0.42768941  0.51735552     1.49700
Zn1472     Zn  0.50297323  0.00356671  0.51570806     1.49400
Zn1473     Zn  0.96487972  0.46603491  0.45268276     1.49100
Zn1474     Zn  0.92806911  0.46671396  0.51829403     1.49500
O1475       O  0.96487059  0.46591453  0.50097412    -1.83300
O1476       O  0.50101103  0.43990211  0.54706769    -0.74000
O1477       O  0.53158711  0.02787865  0.47771949    -0.73800
O1478       O  0.96535596  0.42808947  0.43499226    -0.73300
O1479       O  0.52710774  0.49251376  0.54643688    -0.74000
O1480       O  0.96488293  0.40145651  0.47959053    -0.73600
O1481       O  0.50243634  0.00339967  0.43380814    -0.74200
O1482       O  0.90067427  0.46590086  0.48084738    -0.73500
O1483       O  0.99367781  0.03308078  0.54046786    -0.74300
O1484       O  0.92577286  0.46492768  0.43580882    -0.73700
O1485       O  0.94118898  0.00580233  0.54506290    -0.74200
O1486       O  0.90037536  0.42830712  0.54683363    -0.74100
O1487       O  0.92397312  0.40024465  0.54483254    -0.73900
C1488       C  0.52383697  0.46655976  0.55665490     0.77900
C1489       C  0.52790153  0.02552829  0.44657450     0.78400
C1490       C  0.96552323  0.40467255  0.44827454     0.77400
C1491       C  0.90247002  0.46496889  0.44955454     0.77800
C1492       C  0.96805406  0.03039209  0.55104883     0.78900
C1493       C  0.90144518  0.40383924  0.55481221     0.77900
Zn1494     Zn  0.50700345  0.00700263  0.97888997     1.49700
Zn1495     Zn  0.97125758  0.43176637  0.98147859     1.49400
Zn1496     Zn  0.97113238  0.46856763  0.04590154     1.49100
Zn1497     Zn  0.93127872  0.46695664  0.98208557     1.49500
O1498       O  0.97015530  0.46877327  0.99729300    -1.83300
O1499       O  0.53430609  0.49733194  0.95059572    -0.74000
O1500       O  0.96990148  0.40388248  0.01908366    -0.73800
O1501       O  0.51135845  0.00840427  0.06187834    -0.73300
O1502       O  0.51155054  0.44520421  0.95603162    -0.74000
O1503       O  0.53529657  0.03416785  0.01572493    -0.73600
O1504       O  0.97143468  0.42990275  0.06404259    -0.74200
O1505       O  0.90354910  0.46400546  0.02073041    -0.73500
O1506       O  0.93419690  0.40539153  0.95112131    -0.74300
O1507       O  0.93196741  0.46709457  0.06476491    -0.73700
O1508       O  0.90683548  0.42989847  0.95198761    -0.74200
O1509       O  0.94044309  0.00415447  0.95415467    -0.74100
O1510       O  0.99311099  0.03325038  0.95276821    -0.73900
C1511       C  0.53388638  0.47168227  0.94508180     0.77900
C1512       C  0.97057953  0.40622940  0.05043707     0.78400
C1513       C  0.53449351  0.03203963  0.04710304     0.77400
C1514       C  0.90712001  0.46480971  0.05200173     0.77800
C1515       C  0.91086876  0.40790808  0.94163013     0.78900
C1516       C  0.96598440  0.02889760  0.94503153     0.77900
C1517       C  0.96987083  0.12706444  0.63313674     0.03900
C1518       C  0.94077860  0.12605848  0.63566109    -0.12200
C1519       C  0.93831771  0.14859495  0.65423749     0.01400
C1520       C  0.96613860  0.17379824  0.66771599    -0.10700
C1521       C  0.99523338  0.17510782  0.66647930     0.03900
C1522       C  0.99703591  0.15162242  0.64872636    -0.10200
H1523       H  0.92017276  0.10764818  0.62305030     0.09500
H1524       H  0.96505809  0.19227701  0.68059217     0.07000
H1525       H  0.51951243  0.15223823  0.64751376     0.06900
C1526       C  0.96492789  0.12317490  0.85918042     0.03900
C1527       C  0.93748202  0.12169867  0.84601246    -0.12200
C1528       C  0.94026534  0.14647052  0.82577545     0.01400
C1529       C  0.97036940  0.17298254  0.82002990    -0.10700
C1530       C  0.99766325  0.17429365  0.83200870     0.03900
C1531       C  0.99491869  0.14936753  0.85120486    -0.10200
H1532       H  0.91416043  0.10161474  0.85155192     0.09500
H1533       H  0.97271866  0.19216415  0.80477535     0.07000
H1534       H  0.51658468  0.15066022  0.85982763     0.06900
C1535       C  0.80022667  0.13663412  0.70947423     0.46300
H1536       H  0.79604519  0.13239402  0.68253961    -0.02800
C1537       C  0.80970297  0.14560478  0.77281767     0.46300
H1538       H  0.81312699  0.14909485  0.79981497    -0.02800
C1539       C  0.79751577  0.16446034  0.72206826    -0.16500
C1540       C  0.77609890  0.10836807  0.73042593    -0.16200
C1541       C  0.83302954  0.14328483  0.72084794    -0.16600
C1542       C  0.80405199  0.17019466  0.75536455    -0.16600
C1543       C  0.78096046  0.11314592  0.76394359    -0.16100
C1544       C  0.83773829  0.14719242  0.75447862    -0.16500
C1545       C  0.63146663  0.30958106  0.71970868     0.46300
H1546       H  0.62920803  0.31169825  0.69279346    -0.02800
C1547       C  0.63589922  0.30573912  0.78352813     0.46300
H1548       H  0.63728597  0.30467690  0.81047578    -0.02800
C1549       C  0.60384906  0.27886810  0.73446723    -0.16500
C1550       C  0.66161417  0.30895583  0.73074379    -0.16200
C1551       C  0.63115809  0.33644442  0.73951729    -0.16600
C1552       C  0.60656401  0.27682368  0.76825036    -0.16600
C1553       C  0.66412354  0.30808928  0.76502826    -0.16100
C1554       C  0.63490710  0.33481993  0.77295247    -0.16500
C1555       C  0.60508471  0.46968232  0.66129887     0.03900
C1556       C  0.63398810  0.49771254  0.66809037    -0.12200
C1557       C  0.65360703  0.49883932  0.69404723     0.01400
C1558       C  0.64391555  0.47085530  0.71224677    -0.10700
C1559       C  0.61735180  0.44204833  0.70293699     0.03900
C1560       C  0.59728568  0.44174836  0.67839886    -0.10200
H1561       H  0.64238462  0.01909315  0.65238333     0.09500
H1562       H  0.65836046  0.47071872  0.73216999     0.07000
H1563       H  0.57663538  0.41944287  0.67134031     0.06900
C1564       C  0.79593147  0.30144542  0.62798682     0.03900
C1565       C  0.77209990  0.30521764  0.64240284    -0.12200
C1566       C  0.74487866  0.27934153  0.65656824     0.01400
C1567       C  0.74183722  0.24950213  0.65579100    -0.10700
C1568       C  0.76799307  0.24639766  0.64783379     0.03900
C1569       C  0.79458143  0.27245828  0.63279316    -0.10200
H1570       H  0.77506830  0.32852936  0.64294583     0.09500
H1571       H  0.71987083  0.22913871  0.66425095     0.07000
H1572       H  0.81475933  0.27071743  0.62574923     0.06900
C1573       C  0.81510134  0.31579958  0.85394273     0.03900
C1574       C  0.78999752  0.31978073  0.84377748    -0.12200
C1575       C  0.76740040  0.29890407  0.82125157     0.01400
C1576       C  0.76888462  0.27300484  0.80977709    -0.10700
C1577       C  0.79376830  0.26879112  0.81949619     0.03900
C1578       C  0.81719587  0.29055617  0.84089703    -0.10200
H1579       H  0.78799716  0.33917745  0.85322066     0.09500
H1580       H  0.75116176  0.25660299  0.79266648     0.07000
H1581       H  0.83722215  0.28799012  0.84695006     0.06900
C1582       C  0.63406890  0.47578317  0.86491336     0.03900
C1583       C  0.63345585  0.44834623  0.85414400    -0.12200
C1584       C  0.66033838  0.44992429  0.83910673     0.01400
C1585       C  0.68778881  0.48007256  0.83544256    -0.10700
C1586       C  0.68726188  0.50762833  0.84181608     0.03900
C1587       C  0.66106415  0.50542425  0.85807043    -0.10200
H1588       H  0.61147430  0.42596347  0.85697420     0.09500
H1589       H  0.70963489  0.48293715  0.82641510     0.07000
H1590       H  0.66124297  0.02681416  0.86436745     0.06900
C1591       C  0.72201260  0.32702679  0.77025701    -0.11500
C1592       C  0.69102805  0.30818272  0.78302980     0.05500
C1593       C  0.68660103  0.28874330  0.81118488    -0.06800
C1594       C  0.71209793  0.28675391  0.82354913    -0.07500
C1595       C  0.74218223  0.30415335  0.80936758    -0.02100
C1596       C  0.74738286  0.32492933  0.78295012     0.04800
N1597       N  0.77803446  0.34302009  0.76794360     0.67300
H1598       H  0.72640396  0.34285988  0.74958203     0.16200
H1599       H  0.70824569  0.27107218  0.84424444     0.15900
N1600       N  0.65677550  0.27041194  0.82773636     0.75000
O1601       O  0.78241606  0.33704171  0.73884867    -0.38500
O1602       O  0.80037996  0.36594228  0.78316087    -0.38400
O1603       O  0.64149908  0.24081710  0.82407068    -0.39100
O1604       O  0.65222959  0.28142759  0.85380851    -0.39200
C1605       C  0.71295107  0.30541459  0.66048949    -0.11500
C1606       C  0.72068013  0.28398592  0.67376811     0.05500
C1607       C  0.70601615  0.26847934  0.70382359    -0.06800
C1608       C  0.68423940  0.27462610  0.71907018    -0.07500
C1609       C  0.67952878  0.29908495  0.70813278    -0.02100
C1610       C  0.69354066  0.31377262  0.67748812     0.04800
N1611       N  0.69005705  0.33821217  0.66321910     0.67300
H1612       H  0.72297776  0.31680434  0.63694995     0.16200
H1613       H  0.67307849  0.26193856  0.74161214     0.15900
N1614       N  0.71550567  0.24937352  0.72137295     0.75000
O1615       O  0.71500710  0.36461773  0.65795130    -0.38500
O1616       O  0.66646461  0.33026661  0.64478730    -0.38400
O1617       O  0.74441662  0.26080900  0.72835095    -0.39100
O1618       O  0.69487263  0.22405279  0.73537788    -0.39200
C1619       C  0.63607704  0.39068138  0.83921209    -0.11500
C1620       C  0.65855826  0.42042444  0.82570085     0.05500
C1621       C  0.67706342  0.42039643  0.79858759    -0.06800
C1622       C  0.67032653  0.39189247  0.78435788    -0.07500
C1623       C  0.64494844  0.36276178  0.79505623    -0.02100
C1624       C  0.62889637  0.36216148  0.82417954     0.04800
N1625       N  0.60458541  0.33326200  0.83859488     0.67300
H1626       H  0.62334640  0.38917858  0.86157086     0.16200
H1627       H  0.68426543  0.39274015  0.76332459     0.15900
N1628       N  0.70208435  0.44859566  0.78374200     0.75000
O1629       O  0.61249995  0.31724361  0.85619852    -0.38500
O1630       O  0.57723284  0.32919834  0.84229603    -0.38400
O1631       O  0.73046220  0.45618051  0.78893881    -0.39100
O1632       O  0.69602291  0.46046872  0.75926173    -0.39200
C1633       C  0.63742422  0.40685220  0.69240910    -0.11500
C1634       C  0.61693490  0.41260303  0.71072430     0.05500
C1635       C  0.59807788  0.39112135  0.73564571    -0.06800
C1636       C  0.60071865  0.36446411  0.74194285    -0.07500
C1637       C  0.62373978  0.36027378  0.72564901    -0.02100
C1638       C  0.64184456  0.38176376  0.70021098     0.04800
N1639       N  0.66783713  0.38156354  0.68507192     0.67300
H1640       H  0.65210966  0.42369826  0.67340522     0.16200
H1641       H  0.58658627  0.34831266  0.76164084     0.15900
N1642       N  0.57791171  0.39707158  0.75598921     0.75000
O1643       O  0.67292834  0.38801264  0.65462624    -0.38500
O1644       O  0.69036623  0.38519421  0.70315219    -0.38400
O1645       O  0.55001580  0.37502759  0.76255195    -0.39100
O1646       O  0.58912278  0.42322255  0.77058823    -0.39200
C1647       C  0.79742715  0.18995881  0.66831531    -0.11500
C1648       C  0.78509303  0.18039188  0.70041901     0.05500
C1649       C  0.76116884  0.18622196  0.71103037    -0.06800
C1650       C  0.75477386  0.20599945  0.69209987    -0.07500
C1651       C  0.76990346  0.21904028  0.66171365    -0.02100
C1652       C  0.78964603  0.20861405  0.64851819     0.04800
N1653       N  0.80119376  0.21584943  0.61509913     0.67300
H1654       H  0.81341855  0.18306651  0.65856581     0.16200
H1655       H  0.73813541  0.21167494  0.70219334     0.15900
N1656       N  0.74273794  0.17220540  0.74055027     0.75000
O1657       O  0.82782010  0.21946497  0.60773432    -0.38500
O1658       O  0.78368574  0.21598879  0.59233623    -0.38400
O1659       O  0.73094678  0.18588141  0.75603735    -0.39100
O1660       O  0.73475201  0.14443640  0.74891243    -0.39200
C1661       C  0.78581469  0.18944452  0.80246529    -0.11500
C1662       C  0.80437225  0.19652434  0.77372173     0.05500
C1663       C  0.82068667  0.22801582  0.76156764    -0.06800
C1664       C  0.81672943  0.25103744  0.77691561    -0.07500
C1665       C  0.79710853  0.24354666  0.80452221    -0.02100
C1666       C  0.78163214  0.21258510  0.81754330     0.04800
N1667       N  0.76062170  0.20408992  0.84514154     0.67300
H1668       H  0.77292728  0.16541977  0.81200450     0.16200
H1669       H  0.82935932  0.27510449  0.76744277     0.15900
N1670       N  0.84287462  0.23751437  0.73499273     0.77200
O1671       O  0.73328815  0.19998450  0.84117621    -0.38500
O1672       O  0.76793536  0.19723451  0.87252383    -0.38400
O1673       O  0.84159729  0.25366500  0.71136275    -0.39100
O1674       O  0.86812751  0.23739115  0.73967270    -0.39200
C1675       C  0.72357079  0.08558745  0.70296040    -0.11500
C1676       C  0.74737453  0.08091712  0.71576032     0.05500
C1677       C  0.74137070  0.04990141  0.71872126    -0.06800
C1678       C  0.71168166  0.02434424  0.70999455    -0.07500
C1679       C  0.68646102  0.02848821  0.70053322    -0.02100
C1680       C  0.69281090  0.05989511  0.69693770     0.04800
N1681       N  0.66807589  0.06633938  0.69005581     0.67300
H1682       H  0.72806946  0.10940749  0.70049091     0.16200
H1683       H  0.70852317  0.00097705  0.71075194     0.15900
N1684       N  0.76520800  0.04380622  0.73017757     0.75000
O1685       O  0.64327218  0.05366553  0.70760521    -0.38500
O1686       O  0.67304321  0.08830720  0.67020973    -0.38400
O1687       O  0.76009761  0.02743567  0.75605143    -0.39100
O1688       O  0.78595148  0.04636907  0.71006295    -0.39200
C1689       C  0.72667045  0.08148141  0.78733561    -0.11500
C1690       C  0.75867853  0.09059903  0.78924552     0.05500
C1691       C  0.76786424  0.07522917  0.81227922    -0.06800
C1692       C  0.74452365  0.04938801  0.83069463    -0.07500
C1693       C  0.71211618  0.03867888  0.82656006    -0.02100
C1694       C  0.70334021  0.05533329  0.80475372     0.04800
N1695       N  0.67084328  0.04364745  0.79647350     0.67300
H1696       H  0.71915304  0.09275816  0.76975308     0.16200
H1697       H  0.75164039  0.03687889  0.84735201     0.15900
N1698       N  0.80035528  0.08402561  0.81561389     0.75000
O1699       O  0.66069778  0.06249588  0.79527372    -0.38500
O1700       O  0.65487485  0.01689283  0.78307986    -0.38400
O1701       O  0.81879896  0.10782093  0.83270574    -0.39100
O1702       O  0.80854604  0.06443078  0.80823777    -0.39200
C1703       C  0.90735472  0.17031254  0.81290577    -0.11500
C1704       C  0.91258122  0.14506952  0.80897218     0.05500
C1705       C  0.89316870  0.12063434  0.78679661    -0.06800
C1706       C  0.86895716  0.12183762  0.76957697    -0.07500
C1707       C  0.86433500  0.14753621  0.77279286    -0.02100
C1708       C  0.88347940  0.17167836  0.79529254     0.04800
N1709       N  0.87978344  0.19829981  0.79991550     0.67300
H1710       H  0.92221603  0.18936560  0.82962162     0.16200
H1711       H  0.85365383  0.10249774  0.75346947     0.15900
N1712       N  0.89881171  0.09545176  0.78004105     0.75000
O1713       O  0.86116182  0.19705407  0.82209239    -0.38500
O1714       O  0.90110828  0.22500866  0.78920416    -0.38400
O1715       O  0.87575054  0.06739040  0.77770954    -0.39100
O1716       O  0.92614605  0.10177186  0.77142138    -0.39200
C1717       C  0.54766019  0.19410133  0.80034602    -0.11500
C1718       C  0.52927837  0.20077646  0.82136904     0.05500
C1719       C  0.53838510  0.23244879  0.82713066    -0.06800
C1720       C  0.56489167  0.25664580  0.81085066    -0.07500
C1721       C  0.58289111  0.25023747  0.78912793    -0.02100
C1722       C  0.57425153  0.21843432  0.78392246     0.04800
N1723       N  0.59014228  0.21027943  0.75987552     0.67300
H1724       H  0.54015460  0.16965769  0.79511337     0.16200
H1725       H  0.56988972  0.28073746  0.81294842     0.15900
N1726       N  0.51996788  0.24017914  0.84809358     0.75000
O1727       O  0.61935506  0.22037398  0.76264608    -0.38500
O1728       O  0.57421305  0.18958533  0.73846516    -0.38400
O1729       O  0.51650111  0.23244371  0.87825201    -0.39100
O1730       O  0.00910786  0.25659033  0.83732342    -0.39200
C1731       C  0.90653985  0.17343372  0.66756513    -0.11500
C1732       C  0.90720393  0.14557526  0.66266542     0.05500
C1733       C  0.87996180  0.11641563  0.67196062    -0.06800
C1734       C  0.85475523  0.11625734  0.68821481    -0.07500
C1735       C  0.85670595  0.14442307  0.69737542    -0.02100
C1736       C  0.88255886  0.17326290  0.68614265     0.04800
N1737       N  0.88593623  0.20279018  0.69486688     0.67300
H1738       H  0.92597970  0.19603301  0.65898534     0.16200
H1739       H  0.83485296  0.09403372  0.69638687     0.15900
N1740       N  0.87854841  0.08696461  0.66851505     0.75000
O1741       O  0.91050323  0.22282329  0.71014265    -0.38500
O1742       O  0.86942769  0.21184526  0.68003353    -0.38400
O1743       O  0.88497761  0.07551117  0.69317846    -0.39100
O1744       O  0.86260475  0.06892777  0.64514010    -0.39200
C1745       C  0.55351611  0.21675920  0.66904118    -0.11500
C1746       C  0.52345682  0.20152797  0.68402067     0.05500
C1747       C  0.51994966  0.21346150  0.71447432    -0.06800
C1748       C  0.54549188  0.24104992  0.72752993    -0.07500
C1749       C  0.57625456  0.25441872  0.71451159    -0.02100
C1750       C  0.57988307  0.24239402  0.68422845     0.04800
N1751       N  0.61005608  0.25502096  0.66867130     0.67300
H1752       H  0.55676223  0.20858744  0.64544005     0.16200
H1753       H  0.54149880  0.25083388  0.74949066     0.15900
N1754       N  0.99097457  0.19679525  0.73361746     0.75000
O1755       O  0.62623904  0.24247430  0.67510667    -0.38500
O1756       O  0.61489104  0.26985365  0.64172355    -0.38400
O1757       O  0.97805163  0.16746119  0.73912863    -0.39100
O1758       O  0.97934015  0.21188178  0.74635637    -0.39200
C1759       C  0.87674800  0.35246217  0.92270544    -0.11500
C1760       C  0.88768782  0.38469007  0.91818406     0.05500
C1761       C  0.87499962  0.39414942  0.89242984    -0.06800
C1762       C  0.85148619  0.37138318  0.87198815    -0.07500
C1763       C  0.83976147  0.33892698  0.87688248    -0.02100
C1764       C  0.85241075  0.32942363  0.90294237     0.04800
N1765       N  0.83970481  0.29664354  0.91092508     0.67300
H1766       H  0.88596088  0.34503920  0.94291983     0.16200
H1767       H  0.84280962  0.37927635  0.85169798     0.15900
N1768       N  0.88666311  0.42690536  0.88592176     0.75000
O1769       O  0.85811216  0.28684571  0.91842269    -0.38500
O1770       O  0.81011825  0.27823123  0.91412765    -0.38400
O1771       O  0.91375298  0.44405169  0.87309394    -0.39100
O1772       O  0.86865847  0.43784302  0.88964127    -0.39200
C1773       C  0.59392867  0.45220390  0.91047466    -0.11500
C1774       C  0.60677232  0.47351551  0.88373044     0.05500
C1775       C  0.59503091  0.49389901  0.87725518    -0.06800
C1776       C  0.57232745  0.49371793  0.89838627    -0.07500
C1777       C  0.55967712  0.47256802  0.92514051    -0.02100
C1778       C  0.57065877  0.45153099  0.93116738     0.04800
N1779       N  0.55965146  0.43047154  0.95910600     0.67300
H1780       H  0.60297114  0.43680107  0.91619058     0.16200
H1781       H  0.56331080  0.50918005  0.89285736     0.15900
N1782       N  0.60404743  0.51315516  0.84801516     0.75000
O1783       O  0.55089689  0.40170215  0.95553112    -0.38500
O1784       O  0.56206833  0.44126913  0.98783191    -0.38400
O1785       O  0.60087147  0.50046036  0.82022943    -0.39100
O1786       O  0.60934656  0.54103733  0.84932291    -0.39200
C1787       C  0.94392762  0.04320515  0.89706738    -0.11500
C1788       C  0.96399800  0.05290488  0.92470537     0.05500
C1789       C  0.98306022  0.08544849  0.93148162    -0.06800
C1790       C  0.98241831  0.10758643  0.91008218    -0.07500
C1791       C  0.96324975  0.09814008  0.88162097    -0.02100
C1792       C  0.94385302  0.06539632  0.87506565     0.04800
N1793       N  0.92593727  0.05432107  0.84509902     0.67300
H1794       H  0.92962110  0.01821663  0.89146454     0.16200
H1795       H  0.49721783  0.13269560  0.91592625     0.15900
N1796       N  0.50274282  0.09648600  0.96046825     0.75000
O1797       O  0.93937322  0.06549105  0.81764655    -0.38500
O1798       O  0.89827169  0.03027109  0.84562048    -0.38400
O1799       O  0.53114318  0.11911115  0.95854989    -0.39100
O1800       O  0.49063413  0.08558223  0.98849903    -0.39200
C1801       C  0.85396191  0.33402750  0.61365370    -0.11500
C1802       C  0.82297039  0.32822369  0.60951334     0.05500
C1803       C  0.81840580  0.34830465  0.58786435    -0.06800
C1804       C  0.84461317  0.37359710  0.57179611    -0.07500
C1805       C  0.87534140  0.37874539  0.57528716    -0.02100
C1806       C  0.87997684  0.35873461  0.59672688     0.04800
N1807       N  0.91100382  0.36370727  0.60248595     0.67300
H1808       H  0.85832322  0.31978660  0.63085204     0.16200
H1809       H  0.84059608  0.38833611  0.55492228     0.15900
N1810       N  0.78728286  0.34245664  0.58035797     0.75000
O1811       O  0.93326096  0.39041424  0.61177287    -0.38500
O1812       O  0.91523855  0.34055546  0.60220612    -0.38400
O1813       O  0.78240228  0.36517947  0.57893888    -0.39100
O1814       O  0.76570018  0.31533659  0.57123994    -0.39200
C1815       C  0.99425075  0.11065306  0.58943284    -0.11500
C1816       C  0.97132377  0.10199219  0.61436375     0.05500
C1817       C  0.94840348  0.06955997  0.61922100    -0.06800
C1818       C  0.94716701  0.04708229  0.59730075    -0.07500
C1819       C  0.96946582  0.05575811  0.57178042    -0.02100
C1820       C  0.99368334  0.08791873  0.56826729     0.04800
N1821       N  0.51710101  0.09813735  0.54250613     0.67300
H1822       H  0.51212521  0.13553459  0.58538360     0.16200
H1823       H  0.92952739  0.02231674  0.60122156     0.15900
N1824       N  0.92752882  0.05891949  0.64734914     0.75000
O1825       O  0.50855670  0.09278480  0.51267701    -0.38500
O1826       O  0.54622083  0.11515957  0.54930240    -0.38400
O1827       O  0.90023009  0.03445079  0.64543901    -0.39100
O1828       O  0.93805802  0.07094023  0.67532409    -0.39200
C1829       C  0.55733229  0.49170556  0.60550186    -0.11500
C1830       C  0.54618325  0.46777897  0.58172352     0.05500
C1831       C  0.55454974  0.44446497  0.58409641    -0.06800
C1832       C  0.57348043  0.44531274  0.61040423    -0.07500
C1833       C  0.58422411  0.46900501  0.63451974    -0.02100
C1834       C  0.57562050  0.49220086  0.63221219     0.04800
N1835       N  0.58351159  0.51512997  0.65773641     0.67300
H1836       H  0.55023705  0.50916337  0.60437242     0.16200
H1837       H  0.58049748  0.42780229  0.61153554     0.15900
N1838       N  0.54506983  0.42059996  0.55941004     0.75000
O1839       O  0.59148514  0.54318601  0.65031213    -0.38500
O1840       O  0.57832297  0.50640299  0.68762123    -0.38400
O1841       O  0.55306000  0.42846344  0.52965012    -0.39100
O1842       O  0.53163887  0.39181163  0.56775159    -0.39200
C1843       C  0.60898802  0.08860861  0.41342158    -0.11500
C1844       C  0.60082176  0.09489189  0.38233664     0.05500
C1845       C  0.56879203  0.07810800  0.37234813    -0.06800
C1846       C  0.54553068  0.05550481  0.39349583    -0.07500
C1847       C  0.55352926  0.04912233  0.42472407    -0.02100
C1848       C  0.58573932  0.06593667  0.43464803     0.04800
N1849       N  0.59537225  0.05981275  0.46580889     0.67300
H1850       H  0.63356492  0.10143929  0.42126472     0.16200
H1851       H  0.52102268  0.04296933  0.38543474     0.15900
N1852       N  0.55964739  0.08340855  0.34051342     0.75000
O1853       O  0.59386855  0.03379993  0.47090081    -0.38500
O1854       O  0.60841484  0.08153415  0.48691181    -0.38400
O1855       O  0.56722186  0.07439596  0.31487879    -0.39100
O1856       O  0.54191461  0.09482456  0.33815061    -0.39200
C1857       C  0.82543759  0.45879479  0.42023825    -0.11500
C1858       C  0.82875201  0.45818201  0.38597484     0.05500
C1859       C  0.85621675  0.46032697  0.37279370    -0.06800
C1860       C  0.87994281  0.46298016  0.39389973    -0.07500
C1861       C  0.87692674  0.46345284  0.42840514    -0.02100
C1862       C  0.84922893  0.46151241  0.44155883     0.04800
N1863       N  0.84496289  0.46269348  0.47632994     0.67300
H1864       H  0.80453697  0.45772746  0.43043892     0.16200
H1865       H  0.90073383  0.46434908  0.38301591     0.15900
N1866       N  0.86023672  0.45965214  0.33791145     0.75000
O1867       O  0.85788974  0.48907977  0.49068463    -0.38500
O1868       O  0.82481832  0.43804810  0.49165377    -0.38400
O1869       O  0.86568718  0.96901031  0.31944976    -0.39100
O1870       O  0.84462924  0.43383434  0.32275529    -0.39200
C1871       C  0.97832083  0.38987578  0.39404993    -0.11500
C1872       C  0.96669009  0.38103456  0.42654460     0.05500
C1873       C  0.95586696  0.34969307  0.43715648    -0.06800
C1874       C  0.95599570  0.32792350  0.41519244    -0.07500
C1875       C  0.96721968  0.33676078  0.38272278    -0.02100
C1876       C  0.97860450  0.36811836  0.37207153     0.04800
N1877       N  0.48890437  0.37771137  0.33884600     0.67300
H1878       H  0.98678904  0.41377805  0.38540587     0.16200
H1879       H  0.94730064  0.30388851  0.42357118     0.15900
N1880       N  0.94393154  0.33929246  0.46986002     0.75000
O1881       O  0.47222181  0.36117393  0.31494193    -0.38500
O1882       O  0.51346070  0.40428156  0.33312426    -0.38400
O1883       O  0.91444696  0.32522319  0.47524339    -0.39100
O1884       O  0.96226709  0.34017620  0.49222448    -0.39200
C1885       C  0.86116334  0.47259068  0.06108508    -0.11500
C1886       C  0.88186786  0.46331172  0.07376228     0.05500
C1887       C  0.87789163  0.45277238  0.10699535    -0.06800
C1888       C  0.85372613  0.45157150  0.12649758    -0.07500
C1889       C  0.83348090  0.46121152  0.11384384    -0.02100
C1890       C  0.83736548  0.47188383  0.08087938     0.04800
N1891       N  0.81698043  0.48163823  0.06708405     0.67300
H1892       H  0.86366398  0.48083115  0.03576188     0.16200
H1893       H  0.85101484  0.44343870  0.15189691     0.15900
N1894       N  0.89756925  0.44232583  0.12113924     0.75000
O1895       O  0.82594239  0.51063732  0.06585960    -0.38500
O1896       O  0.79175433  0.46173486  0.05270475    -0.38400
O1897       O  0.92102230  0.46098989  0.13865133    -0.39100
O1898       O  0.88843459  0.41328425  0.12084761    -0.39200
C1899       C  0.96403405  0.35296894  0.12337483    -0.11500
C1900       C  0.96894314  0.33061106  0.10766763     0.05500
C1901       C  0.97458531  0.33329594  0.07337824    -0.06800
C1902       C  0.97531159  0.35812486  0.05544498    -0.07500
C1903       C  0.97046583  0.38078632  0.07099869    -0.02100
C1904       C  0.96503586  0.37803449  0.10557594     0.04800
N1905       N  0.96031945  0.40029201  0.12313265     0.67300
H1906       H  0.95993987  0.35127085  0.14981131     0.16200
H1907       H  0.97944153  0.35941944  0.02904633     0.15900
N1908       N  0.97854104  0.31030229  0.05626166     0.75000
O1909       O  0.93293761  0.39218251  0.13344169    -0.38500
O1910       O  0.98403927  0.42530801  0.13382736    -0.38400
O1911       O  0.95491563  0.28293592  0.05162206    -0.39100
O1912       O  0.50519801  0.31923766  0.04190232    -0.39200
C1913       C  0.55496316  0.31446310  0.16900829    -0.11500
C1914       C  0.52857026  0.28435976  0.16235671     0.05500
C1915       C  0.52940901  0.25745599  0.17366046    -0.06800
C1916       C  0.55182332  0.26135211  0.19757260    -0.07500
C1917       C  0.57733722  0.29136581  0.20517898    -0.02100
C1918       C  0.58011749  0.31789097  0.18850149     0.04800
N1919       N  0.60824791  0.34832787  0.19066002     0.67300
H1920       H  0.55599541  0.33562968  0.15983633     0.16200
H1921       H  0.55053536  0.24078994  0.20890021     0.15900
N1922       N  0.00843441  0.22629775  0.15993836     0.75000
O1923       O  0.62940903  0.35598003  0.16893338    -0.38500
O1924       O  0.60757434  0.36990463  0.20651017    -0.38400
O1925       O  0.99893297  0.22348560  0.13046814    -0.39100
O1926       O  0.00162200  0.20169948  0.17632239    -0.39200
C1927       C  0.53198641  0.27425530  0.32453521    -0.11500
C1928       C  0.52273262  0.29526793  0.31366646     0.05500
C1929       C  0.53918453  0.31590331  0.28724808    -0.06800
C1930       C  0.56385795  0.31451916  0.27174154    -0.07500
C1931       C  0.57260299  0.29259165  0.28135915    -0.02100
C1932       C  0.55687067  0.27294503  0.30923313     0.04800
N1933       N  0.56495925  0.25100088  0.32220782     0.67300
H1934       H  0.51929428  0.25817581  0.34504228     0.16200
H1935       H  0.57687246  0.33158673  0.25164089     0.15900
N1936       N  0.03009516  0.33723604  0.27474520     0.75000
O1937       O  0.58329281  0.25924331  0.34677952    -0.38500
O1938       O  0.54577892  0.22186670  0.31789117    -0.38400
O1939       O  0.04144703  0.36416834  0.28758375    -0.39100
O1940       O  0.01266008  0.33024420  0.24955276    -0.39200
C1941       C  0.73752885  0.37542046  0.18939616    -0.11500
C1942       C  0.73520390  0.40253750  0.18526711     0.05500
C1943       C  0.70685252  0.40089170  0.19591152    -0.06800
C1944       C  0.68383135  0.37428691  0.21313581    -0.07500
C1945       C  0.68567613  0.34719097  0.21595103    -0.02100
C1946       C  0.71257285  0.34754820  0.20350682     0.04800
N1947       N  0.71496721  0.31995799  0.20480052     0.67300
H1948       H  0.75874062  0.37566712  0.18177489     0.16200
H1949       H  0.66331619  0.37409401  0.22302341     0.15900
N1950       N  0.69949898  0.42447440  0.18680637     0.75000
O1951       O  0.70589678  0.30188596  0.18015417    -0.38500
O1952       O  0.73365680  0.31865596  0.22524882    -0.38400
O1953       O  0.69992972  0.43132745  0.15665683    -0.39100
O1954       O  0.68569118  0.43263764  0.20721532    -0.39200
C1955       C  0.70097928  0.39456617  0.31487849    -0.11500
C1956       C  0.73149903  0.39881414  0.31609134     0.05500
C1957       C  0.73594282  0.37434391  0.30455674    -0.06800
C1958       C  0.71016672  0.34679713  0.29153218    -0.07500
C1959       C  0.68023601  0.34347280  0.28878015    -0.02100
C1960       C  0.67541149  0.36714428  0.30145175     0.04800
N1961       N  0.64492281  0.36408596  0.29994809     0.67300
H1962       H  0.69702120  0.41280192  0.32416758     0.16200
H1963       H  0.71397934  0.32877602  0.28139587     0.15900
N1964       N  0.76686814  0.37829039  0.30288401     0.75000
O1965       O  0.62402652  0.34676417  0.32089602    -0.38500
O1966       O  0.64121769  0.38342288  0.28283414    -0.38400
O1967       O  0.77090655  0.35608762  0.31200313    -0.39100
O1968       O  0.78869401  0.40153231  0.28718713    -0.39200
C1969       C  0.61142790  0.18249743  0.29705942    -0.11500
C1970       C  0.63960553  0.19252463  0.31459937     0.05500
C1971       C  0.66209445  0.22515149  0.31688933    -0.06800
C1972       C  0.65560835  0.24703720  0.30217586    -0.07500
C1973       C  0.62755820  0.23698473  0.28427398    -0.02100
C1974       C  0.60525836  0.20419381  0.28135975     0.04800
N1975       N  0.57705000  0.19238110  0.26161288     0.67300
H1976       H  0.59443899  0.15737754  0.29483051     0.16200
H1977       H  0.67320971  0.27205395  0.30353305     0.15900
N1978       N  0.69175658  0.23635736  0.33342768     0.75000
O1979       O  0.56557355  0.16604405  0.24732777    -0.38500
O1980       O  0.56287628  0.20753048  0.25906236    -0.38400
O1981       O  0.71745428  0.25551883  0.31898639    -0.39100
O1982       O  0.69228884  0.22863565  0.36310581    -0.39200
C1983       C  0.89715191  0.20549545  0.32787384    -0.11500
C1984       C  0.90550036  0.23643045  0.31942746     0.05500
C1985       C  0.88696944  0.24136026  0.29646122    -0.06800
C1986       C  0.86145010  0.21543780  0.28104925    -0.07500
C1987       C  0.85366892  0.18435636  0.28848295    -0.02100
C1988       C  0.87123970  0.17943931  0.31292957     0.04800
N1989       N  0.86549357  0.14852995  0.32018738     0.67300
H1990       H  0.91167030  0.20160814  0.34517523     0.16200
H1991       H  0.84868928  0.21966644  0.26185111     0.15900
N1992       N  0.89549078  0.27262444  0.28651181     0.75000
O1993       O  0.88540412  0.14134535  0.31073292    -0.38500
O1994       O  0.84607679  0.13231268  0.34278150    -0.38400
O1995       O  0.91195069  0.28481281  0.26079007    -0.39100
O1996       O  0.88375305  0.28665361  0.30133384    -0.39200
C1997       C  0.88959740  0.19394332  0.22547092    -0.11500
C1998       C  0.85888798  0.18288609  0.21342744     0.05500
C1999       C  0.85561575  0.19720537  0.18440672    -0.06800
C2000       C  0.88270271  0.22187058  0.16874152    -0.07500
C2001       C  0.91314604  0.23414693  0.18220214    -0.02100
C2002       C  0.91606222  0.22077418  0.21224238     0.04800
N2003       N  0.94508128  0.23503453  0.23085158     0.67300
H2004       H  0.89292445  0.18278463  0.24693143     0.16200
H2005       H  0.87969835  0.23137188  0.14574958     0.15900
N2006       N  0.82530981  0.18839095  0.17093116     0.75000
O2007       O  0.95349584  0.21792642  0.24565678    -0.38500
O2008       O  0.96089239  0.26460373  0.23495546    -0.38400
O2009       O  0.81732177  0.20893210  0.17015085    -0.39100
O2010       O  0.81285438  0.16611190  0.15040501    -0.39200
C2011       C  0.71612725  0.10383841  0.28302356    -0.11500
C2012       C  0.74765985  0.12900526  0.28399469     0.05500
C2013       C  0.75455867  0.15705385  0.30017187    -0.06800
C2014       C  0.73003491  0.15976592  0.31410446    -0.07500
C2015       C  0.69842842  0.13476326  0.31268939    -0.02100
C2016       C  0.69147019  0.10627484  0.29719971     0.04800
N2017       N  0.65950583  0.08013962  0.29435299     0.67300
H2018       H  0.71049318  0.08238635  0.27038560     0.16200
H2019       H  0.73573630  0.18167534  0.32604241     0.15900
N2020       N  0.78608825  0.18364552  0.30145761     0.75000
O2021       O  0.63812242  0.08433699  0.28268953    -0.38500
O2022       O  0.65329522  0.05234258  0.30023692    -0.38400
O2023       O  0.79361059  0.20683928  0.28240575    -0.39100
O2024       O  0.80231079  0.18778699  0.32714161    -0.39200
C2025       C  0.82674834  0.06996181  0.29124913    -0.11500
C2026       C  0.80058368  0.07391404  0.28885975     0.05500
C2027       C  0.77103907  0.05010281  0.30128894    -0.06800
C2028       C  0.76781179  0.02244271  0.31485108    -0.07500
C2029       C  0.79365760  0.01783018  0.31614432    -0.02100
C2030       C  0.82363436  0.04212405  0.30443471     0.04800
N2031       N  0.85051502  0.03811610  0.30355450     0.67300
H2032       H  0.84931801  0.08782652  0.28094743     0.16200
H2033       H  0.74476166  0.00417866  0.32395287     0.15900
N2034       N  0.74360614  0.05277400  0.29858552     0.75000
O2035       O  0.84809856  0.01377428  0.29060420    -0.38500
O2036       O  0.87756528  0.06058880  0.31182880    -0.38400
O2037       O  0.72313553  0.03693329  0.27689252    -0.39100
O2038       O  0.73608645  0.06382782  0.32253414    -0.39200
C2039       C  0.77420292  0.04984029  0.20638951    -0.11500
C2040       C  0.80407479  0.07445505  0.21557653     0.05500
C2041       C  0.83122132  0.07292947  0.20747946    -0.06800
C2042       C  0.82728047  0.04565976  0.19201565    -0.07500
C2043       C  0.79710430  0.02113671  0.18226193    -0.02100
C2044       C  0.77057574  0.02450431  0.18771522     0.04800
N2045       N  0.74034449  0.50261710  0.17325240     0.67300
H2046       H  0.75359862  0.05075567  0.21344240     0.16200
H2047       H  0.84784792  0.04359142  0.18758560     0.15900
N2048       N  0.86263243  0.09843572  0.21493002     0.75000
O2049       O  0.71495798  0.49745097  0.18676694    -0.38500
O2050       O  0.73951944  0.49432377  0.14366765    -0.38400
O2051       O  0.88413055  0.09277061  0.22256208    -0.39100
O2052       O  0.87012964  0.12661765  0.20924104    -0.39200
C2053       C  0.61354686  0.10535396  0.07180932    -0.11500
C2054       C  0.61106111  0.10357796  0.10624963     0.05500
C2055       C  0.58359273  0.07858791  0.12119305    -0.06800
C2056       C  0.55889446  0.05598248  0.10156620    -0.07500
C2057       C  0.56108544  0.05735904  0.06687130    -0.02100
C2058       C  0.58898291  0.08258686  0.05203513     0.04800
N2059       N  0.59294775  0.08552934  0.01697986     0.67300
H2060       H  0.63458058  0.12462770  0.06020739     0.16200
H2061       H  0.53804677  0.03700414  0.11371137     0.15900
N2062       N  0.58060117  0.07582996  0.15640552     0.75000
O2063       O  0.58370392  0.10129804  0.00089232    -0.38500
O2064       O  0.60975559  0.07650096  0.00288434    -0.38400
O2065       O  0.55824366  0.07668710  0.17062288    -0.39100
O2066       O  0.59867728  0.06991120  0.17305833    -0.39200
C2067       C  0.70106977  0.10884686  0.18167141    -0.11500
C2068       C  0.70645661  0.13950558  0.17758293     0.05500
C2069       C  0.73572643  0.16553467  0.18837367    -0.06800
C2070       C  0.75650494  0.15997422  0.20678816    -0.07500
C2071       C  0.75101158  0.12942951  0.21079537    -0.02100
C2072       C  0.72361915  0.10379417  0.19688732     0.04800
N2073       N  0.71863768  0.07268338  0.19676225     0.67300
H2074       H  0.67918360  0.08851221  0.17319935     0.16200
H2075       H  0.77773723  0.17967865  0.21725728     0.15900
N2076       N  0.74563388  0.19741776  0.17886082     0.75000
O2077       O  0.69876181  0.05225594  0.21662157    -0.38500
O2078       O  0.72544363  0.06345347  0.17076721    -0.38400
O2079       O  0.76381636  0.22016824  0.19735061    -0.39100
O2080       O  0.74138957  0.20323706  0.14950828    -0.39200
C2081       C  0.61760837  0.19572668  0.17577855    -0.11500
C2082       C  0.64694486  0.19740162  0.18001988     0.05500
C2083       C  0.67039539  0.22276597  0.19936156    -0.06800
C2084       C  0.66266650  0.24235107  0.21654534    -0.07500
C2085       C  0.63396367  0.24094702  0.21127071    -0.02100
C2086       C  0.61192025  0.21838866  0.18930078     0.04800
N2087       N  0.58418838  0.21866430  0.17946647     0.67300
H2088       H  0.59870703  0.17717483  0.16153453     0.16200
H2089       H  0.68009963  0.26028904  0.23275048     0.15900
N2090       N  0.70299040  0.23148333  0.19915964     0.75000
O2091       O  0.58741866  0.24011060  0.15982048    -0.38500
O2092       O  0.55739583  0.19359524  0.18192505    -0.38400
O2093       O  0.71815848  0.24004838  0.17226763    -0.39100
O2094       O  0.71812551  0.23778678  0.22599559    -0.39200
C2095       C  0.63491427  0.62797892  0.12823064     0.03900
C2096       C  0.63261518  0.65361998  0.13910368    -0.12200
C2097       C  0.65145019  0.67266982  0.16555386     0.01400
C2098       C  0.67331395  0.66556165  0.17959593    -0.10700
C2099       C  0.67909547  0.64307115  0.16552531     0.03900
C2100       C  0.65907338  0.62368781  0.14030075    -0.10200
H2101       H  0.61512297  0.65745581  0.12740837     0.09500
H2102       H  0.68570429  0.67688487  0.20204460     0.07000
H2103       H  0.66168213  0.60481094  0.13041061     0.06900
C2104       C  0.80300997  0.62737255  0.21762624     0.46300
H2105       H  0.80345882  0.62604918  0.19041814    -0.02800
C2106       C  0.80094170  0.62817229  0.28200220     0.46300
H2107       H  0.79964065  0.62842358  0.30933808    -0.02800
C2108       C  0.80468603  0.60032266  0.23440687    -0.16500
C2109       C  0.83082305  0.65767534  0.23257074    -0.16200
C2110       C  0.77275797  0.62522695  0.23148401    -0.16600
C2111       C  0.80275760  0.60013531  0.26814549    -0.16600
C2112       C  0.82966919  0.65785184  0.26680198    -0.16100
C2113       C  0.77214654  0.62653522  0.26528131    -0.16500
C2114       C  0.63013565  0.79305232  0.21518751     0.46300
H2115       H  0.63222805  0.79423891  0.18782932    -0.02800
C2116       C  0.62580329  0.79082749  0.27947669     0.46300
H2117       H  0.62526659  0.79075056  0.30674338    -0.02800
C2118       C  0.60115624  0.79379885  0.22837257    -0.16500
C2119       C  0.62733530  0.76315760  0.23039877    -0.16200
C2120       C  0.65891870  0.82044798  0.23243467    -0.16600
C2121       C  0.59840541  0.79221391  0.26247351    -0.16600
C2122       C  0.62537744  0.76206787  0.26429354    -0.16100
C2123       C  0.65627285  0.81954510  0.26610932    -0.16500
C2124       C  0.96879605  0.80448262  0.12643628     0.03900
C2125       C  0.99692770  0.80374821  0.12996771    -0.12200
C2126       C  0.99742504  0.78026038  0.14953629     0.01400
C2127       C  0.96868079  0.75630439  0.16301105    -0.10700
C2128       C  0.94098935  0.75765125  0.16200537     0.03900
C2129       C  0.94115713  0.78193100  0.14334370    -0.10200
H2130       H  0.51849463  0.82252249  0.11881177     0.09500
H2131       H  0.96809847  0.73725823  0.17667007     0.07000
H2132       H  0.92004229  0.78354592  0.14204657     0.06900
C2133       C  0.80906500  0.96170466  0.13430574     0.03900
C2134       C  0.81346007  0.99058566  0.14564215    -0.12200
C2135       C  0.79292996  0.99098395  0.16945242     0.01400
C2136       C  0.76846964  0.96218416  0.18237668    -0.10700
C2137       C  0.76196290  0.93299237  0.16973965     0.03900
C2138       C  0.78289855  0.93305002  0.14586467    -0.10200
H2139       H  0.83324954  0.51223059  0.13728756     0.09500
H2140       H  0.75451100  0.96270281  0.20274223     0.07000
H2141       H  0.77905118  0.91096563  0.13612868     0.06900
C2142       C  0.96586130  0.81263796  0.35998470     0.03900
C2143       C  0.99411728  0.81621274  0.34691696    -0.12200
C2144       C  0.99292641  0.79283098  0.32624257     0.01400
C2145       C  0.96353173  0.76632867  0.31842646    -0.10700
C2146       C  0.93535566  0.76321812  0.33024880     0.03900
C2147       C  0.93653872  0.78614234  0.35133908    -0.10200
H2148       H  0.51678331  0.83649132  0.35341010     0.09500
H2149       H  0.96254143  0.74843607  0.30227369     0.07000
H2150       H  0.91467514  0.78357951  0.36067219     0.06900
C2151       C  0.80455913  0.95779927  0.36422900     0.03900
C2152       C  0.80872702  0.98667238  0.35320422    -0.12200
C2153       C  0.78847147  0.98733349  0.32922403     0.01400
C2154       C  0.76328772  0.95865829  0.31720471    -0.10700
C2155       C  0.75847260  0.92951788  0.32857189     0.03900
C2156       C  0.77927169  0.92928860  0.35224063    -0.10200
H2157       H  0.82853903  0.50864239  0.36150435     0.09500
H2158       H  0.74785998  0.95903194  0.29828400     0.07000
H2159       H  0.77600816  0.90703434  0.36116869     0.06900
C2160       C  0.62721407  0.62203976  0.36233346     0.03900
C2161       C  0.65251115  0.61913693  0.35096533    -0.12200
C2162       C  0.67443576  0.64105166  0.32805136     0.01400
C2163       C  0.67169503  0.66690135  0.31791265    -0.10700
C2164       C  0.64672562  0.67023638  0.32962061     0.03900
C2165       C  0.62463820  0.64773885  0.35182023    -0.10200
H2166       H  0.65440462  0.59916615  0.35898167     0.09500
H2167       H  0.68794510  0.68345281  0.29958619     0.07000
H2168       H  0.60491248  0.64983547  0.36032456     0.06900
Zn2169     Zn  0.96370048  0.92733727  0.51783411     1.49700
Zn2170     Zn  0.50317262  0.50405503  0.51550585     1.49400
Zn2171     Zn  0.96407452  0.96514405  0.45310324     1.49100
Zn2172     Zn  0.92774737  0.96618577  0.51856660     1.49500
O2173       O  0.96451943  0.96536254  0.50133252    -1.83300
O2174       O  0.50157017  0.93975444  0.54714342    -0.74000
O2175       O  0.53214555  0.52868432  0.47783197    -0.73800
O2176       O  0.96459442  0.92729419  0.43559321    -0.73300
O2177       O  0.52725142  0.99235312  0.54652285    -0.74000
O2178       O  0.96438160  0.90069572  0.48010653    -0.73600
O2179       O  0.50350603  0.50450399  0.43358144    -0.74200
O2180       O  0.89976046  0.96454813  0.48128687    -0.73500
O2181       O  0.99399199  0.53341138  0.54047569    -0.74300
O2182       O  0.92479265  0.96357438  0.43620309    -0.73700
O2183       O  0.94151225  0.50608713  0.54536325    -0.74200
O2184       O  0.90069978  0.92826882  0.54776998    -0.74100
O2185       O  0.92438210  0.90026393  0.54593369    -0.73900
C2186       C  0.52430637  0.96651243  0.55664173     0.77900
C2187       C  0.52882362  0.52659571  0.44664126     0.78400
C2188       C  0.96483142  0.90389815  0.44879128     0.77400
C2189       C  0.90142460  0.96342219  0.44999766     0.77800
C2190       C  0.96840876  0.53068157  0.55125343     0.78900
C2191       C  0.90196154  0.90397448  0.55603849     0.77900
Zn2192     Zn  0.50679181  0.50757677  0.97922013     1.49700
Zn2193     Zn  0.97138526  0.93124395  0.98135356     1.49400
Zn2194     Zn  0.97125316  0.96842193  0.04586808     1.49100
Zn2195     Zn  0.93124859  0.96610594  0.98169829     1.49500
O2196       O  0.97019895  0.96821875  0.99713845    -1.83300
O2197       O  0.53427869  0.99664538  0.95002616    -0.74000
O2198       O  0.97049546  0.90400258  0.01915004    -0.73800
O2199       O  0.51079779  0.50826955  0.06216833    -0.73300
O2200       O  0.51175114  0.94457484  0.95584890    -0.74000
O2201       O  0.53474616  0.53464230  0.01625736    -0.73600
O2202       O  0.97154421  0.92978633  0.06417762    -0.74200
O2203       O  0.90388675  0.96403941  0.02029070    -0.73500
O2204       O  0.93399551  0.90414973  0.95148564    -0.74300
O2205       O  0.93197721  0.96702713  0.06467810    -0.73700
O2206       O  0.90651316  0.92853509  0.95206884    -0.74200
O2207       O  0.94050778  0.50529725  0.95493272    -0.74100
O2208       O  0.99317650  0.53392425  0.95283885    -0.73900
C2209       C  0.53393566  0.97101868  0.94464860     0.77900
C2210       C  0.97098639  0.90628536  0.05049061     0.78400
C2211       C  0.53377860  0.53219760  0.04761466     0.77400
C2212       C  0.90734022  0.96497139  0.05157937     0.77800
C2213       C  0.91050966  0.90641517  0.94203446     0.78900
C2214       C  0.96607634  0.52983383  0.94545479     0.77900
C2215       C  0.97081547  0.62758623  0.63331219     0.03900
C2216       C  0.94156923  0.62622052  0.63588365    -0.12200
C2217       C  0.93889294  0.64874049  0.65423555     0.01400
C2218       C  0.96663469  0.67425317  0.66748883    -0.10700
C2219       C  0.99588673  0.67587046  0.66633243     0.03900
C2220       C  0.99791087  0.65241114  0.64872478    -0.10200
H2221       H  0.92100506  0.60752976  0.62347381     0.09500
H2222       H  0.96536333  0.69272371  0.68013933     0.07000
H2223       H  0.52021281  0.65333773  0.64702137     0.06900
C2224       C  0.96530698  0.62405495  0.85913630     0.03900
C2225       C  0.93786664  0.62240945  0.84575117    -0.12200
C2226       C  0.94060147  0.64704749  0.82533628     0.01400
C2227       C  0.97065657  0.67365475  0.81964274    -0.10700
C2228       C  0.99797523  0.67521809  0.83194136     0.03900
C2229       C  0.99527251  0.65038219  0.85130424    -0.10200
H2230       H  0.91456495  0.60227147  0.85124246     0.09500
H2231       H  0.97295980  0.69269126  0.80417450     0.07000
H2232       H  0.51683620  0.65172516  0.86015703     0.06900
C2233       C  0.80002920  0.63561956  0.70876399     0.46300
H2234       H  0.79607626  0.63165047  0.68177261    -0.02800
C2235       C  0.80898690  0.64401815  0.77221919     0.46300
H2236       H  0.81215846  0.64716908  0.79927467    -0.02800
C2237       C  0.79702085  0.66320379  0.72163288    -0.16500
C2238       C  0.77584213  0.60706615  0.72935816    -0.16200
C2239       C  0.83283122  0.64239555  0.72033103    -0.16600
C2240       C  0.80320500  0.66859960  0.75502117    -0.16600
C2241       C  0.78048900  0.61156973  0.76292710    -0.16100
C2242       C  0.83729735  0.64612070  0.75399583    -0.16500
C2243       C  0.63239623  0.80995708  0.71957303     0.46300
H2244       H  0.63018391  0.81212705  0.69267570    -0.02800
C2245       C  0.63660511  0.80595202  0.78337809     0.46300
H2246       H  0.63791100  0.80479901  0.81028827    -0.02800
C2247       C  0.60444109  0.77947440  0.73422969    -0.16500
C2248       C  0.66218030  0.80875342  0.73068628    -0.16200
C2249       C  0.63264955  0.83708674  0.73934390    -0.16600
C2250       C  0.60703782  0.77733542  0.76801511    -0.16600
C2251       C  0.66461820  0.80778101  0.76496515    -0.16100
C2252       C  0.63623790  0.83538343  0.77280308    -0.16500
C2253       C  0.60656268  0.97024419  0.66051240     0.03900
C2254       C  0.63512018  0.99846433  0.66782265    -0.12200
C2255       C  0.65461368  0.99958437  0.69392765     0.01400
C2256       C  0.64514003  0.97148003  0.71178690    -0.10700
C2257       C  0.61902803  0.94260104  0.70194760     0.03900
C2258       C  0.59909076  0.94221068  0.67720480    -0.10200
H2259       H  0.64144039  0.51816670  0.65231322     0.09500
H2260       H  0.65942357  0.97137015  0.73191672     0.07000
H2261       H  0.57873390  0.91982957  0.66980432     0.06900
C2262       C  0.79692497  0.80170954  0.62952430     0.03900
C2263       C  0.77293005  0.80522742  0.64386187    -0.12200
C2264       C  0.74547466  0.77908771  0.65729322     0.01400
C2265       C  0.74243819  0.74928020  0.65600688    -0.10700
C2266       C  0.76874377  0.74634743  0.64828439     0.03900
C2267       C  0.79557727  0.77269446  0.63392671    -0.10200
H2268       H  0.77588346  0.82852325  0.64478468     0.09500
H2269       H  0.72031527  0.72876760  0.66388649     0.07000
H2270       H  0.81590264  0.77114496  0.62706111     0.06900
C2271       C  0.81426921  0.81370839  0.85506385     0.03900
C2272       C  0.78960655  0.81815280  0.84435958    -0.12200
C2273       C  0.76706518  0.79738967  0.82172628     0.01400
C2274       C  0.76832936  0.77132690  0.81042315    -0.10700
C2275       C  0.79275365  0.76659337  0.82067002     0.03900
C2276       C  0.81597404  0.78805657  0.84251668    -0.10200
H2277       H  0.78793962  0.83784561  0.85347981     0.09500
H2278       H  0.75076808  0.75516358  0.79303499     0.07000
H2279       H  0.83564003  0.78508768  0.84915182     0.06900
C2280       C  0.63439431  0.97569292  0.86462366     0.03900
C2281       C  0.63421174  0.94845433  0.85400849    -0.12200
C2282       C  0.66121700  0.95039072  0.83887268     0.01400
C2283       C  0.68838429  0.98075638  0.83496850    -0.10700
C2284       C  0.68750622  0.00813456  0.84147235     0.03900
C2285       C  0.66109595  0.00551380  0.85769834    -0.10200
H2286       H  0.61241993  0.92592754  0.85700958     0.09500
H2287       H  0.71030205  0.98392219  0.82579465     0.07000
H2288       H  0.66162354  0.52692637  0.86473976     0.06900
C2289       C  0.72235464  0.82600510  0.77027745    -0.11500
C2290       C  0.69130323  0.80744780  0.78300272     0.05500
C2291       C  0.68665661  0.78806061  0.81128441    -0.06800
C2292       C  0.71193878  0.78573088  0.82370578    -0.07500
C2293       C  0.74206721  0.80286407  0.80959862    -0.02100
C2294       C  0.74753404  0.82367357  0.78315240     0.04800
N2295       N  0.77829630  0.84164326  0.76838217     0.67300
H2296       H  0.72696686  0.84186696  0.74957291     0.16200
H2297       H  0.70790847  0.77008673  0.84449186     0.15900
N2298       N  0.65689374  0.77027938  0.82808014     0.75000
O2299       O  0.78322714  0.83466419  0.73998254    -0.38500
O2300       O  0.80037566  0.86501087  0.78334983    -0.38400
O2301       O  0.64163005  0.74059366  0.82540170    -0.39100
O2302       O  0.65267292  0.78197281  0.85380476    -0.39200
C2303       C  0.71354033  0.80506772  0.66078855    -0.11500
C2304       C  0.72095526  0.78343771  0.67411343     0.05500
C2305       C  0.70574206  0.76754922  0.70384490    -0.06800
C2306       C  0.68386485  0.77371142  0.71887111    -0.07500
C2307       C  0.67979112  0.79862052  0.70807977    -0.02100
C2308       C  0.69415070  0.81351186  0.67761729     0.04800
N2309       N  0.69108890  0.83825499  0.66341634     0.67300
H2310       H  0.72389153  0.81661759  0.63739640     0.16200
H2311       H  0.67197840  0.76061368  0.74108053     0.15900
N2312       N  0.71474131  0.74800472  0.72129139     0.75000
O2313       O  0.71626657  0.86434342  0.65768036    -0.38500
O2314       O  0.66720427  0.83073963  0.64560521    -0.38400
O2315       O  0.74350178  0.75911593  0.72874258    -0.39100
O2316       O  0.69375894  0.72250065  0.73470238    -0.39200
C2317       C  0.63750978  0.89118025  0.83928879    -0.11500
C2318       C  0.65976323  0.92096773  0.82563916     0.05500
C2319       C  0.67822611  0.92100079  0.79846964    -0.06800
C2320       C  0.67159332  0.89250666  0.78428594    -0.07500
C2321       C  0.64629422  0.86331040  0.79499484    -0.02100
C2322       C  0.63036354  0.86265313  0.82425012     0.04800
N2323       N  0.60619063  0.83371405  0.83878185     0.67300
H2324       H  0.62488914  0.88964344  0.86174386     0.16200
H2325       H  0.68557004  0.89342600  0.76328377     0.15900
N2326       N  0.70310336  0.94923859  0.78352488     0.75000
O2327       O  0.61427666  0.81762426  0.85601932    -0.38500
O2328       O  0.57894519  0.82974992  0.84310155    -0.38400
O2329       O  0.73154245  0.95741630  0.78939187    -0.39100
O2330       O  0.69709035  0.96027508  0.75827911    -0.39200
C2331       C  0.63987685  0.90789924  0.69221617    -0.11500
C2332       C  0.61882086  0.91330856  0.70991658     0.05500
C2333       C  0.59962883  0.89169698  0.73457217    -0.06800
C2334       C  0.60232084  0.86512889  0.74112432    -0.07500
C2335       C  0.62566733  0.86113144  0.72534620    -0.02100
C2336       C  0.64434977  0.88288585  0.70031095     0.04800
N2337       N  0.67069549  0.88283713  0.68576623     0.67300
H2338       H  0.65486556  0.92492200  0.67349027     0.16200
H2339       H  0.58789050  0.84884985  0.76060702     0.15900
N2340       N  0.57906356  0.89746097  0.75444910     0.75000
O2341       O  0.67712006  0.89056552  0.65570511    -0.38500
O2342       O  0.69210432  0.88457325  0.70439752    -0.38400
O2343       O  0.55103873  0.87536686  0.76039717    -0.39100
O2344       O  0.59001414  0.92343675  0.76934173    -0.39200
C2345       C  0.79780728  0.68954304  0.66824929    -0.11500
C2346       C  0.78487983  0.67937837  0.70004227     0.05500
C2347       C  0.76077028  0.68498842  0.71046923    -0.06800
C2348       C  0.75467898  0.70507576  0.69172566    -0.07500
C2349       C  0.77040413  0.71873136  0.66173760    -0.02100
C2350       C  0.79045331  0.70862454  0.64865993     0.04800
N2351       N  0.80285022  0.71670454  0.61559511     0.67300
H2352       H  0.81397710  0.68283369  0.65861552     0.16200
H2353       H  0.73785738  0.71055345  0.70171273     0.15900
N2354       N  0.74192651  0.67051864  0.73965869     0.75000
O2355       O  0.82978887  0.72078955  0.60885966    -0.38500
O2356       O  0.78589261  0.71729937  0.59248490    -0.38400
O2357       O  0.72988920  0.68393804  0.75518690    -0.39100
O2358       O  0.73393290  0.64267323  0.74770256    -0.39200
C2359       C  0.78448016  0.68721617  0.80230694    -0.11500
C2360       C  0.80324664  0.69466634  0.77367624     0.05500
C2361       C  0.81972802  0.72632463  0.76204950    -0.06800
C2362       C  0.81583946  0.74919688  0.77786664    -0.07500
C2363       C  0.79604369  0.74139443  0.80538877    -0.02100
C2364       C  0.78021095  0.71016230  0.81779780     0.04800
N2365       N  0.75877573  0.70117725  0.84513168     0.67300
H2366       H  0.77144217  0.66303182  0.81138346     0.16200
H2367       H  0.82864720  0.77340433  0.76880282     0.15900
N2368       N  0.84202772  0.73611438  0.73554677     0.77200
O2369       O  0.73356256  0.70182600  0.84218932    -0.38500
O2370       O  0.76276567  0.68854810  0.87043368    -0.38400
O2371       O  0.84117677  0.75291568  0.71235976    -0.39100
O2372       O  0.86691502  0.73522699  0.73986585    -0.39200
C2373       C  0.72344353  0.58461399  0.70164852    -0.11500
C2374       C  0.74711799  0.57974606  0.71444869     0.05500
C2375       C  0.74080008  0.54862616  0.71759398    -0.06800
C2376       C  0.71084393  0.52316979  0.70936721    -0.07500
C2377       C  0.68574648  0.52757612  0.70009182    -0.02100
C2378       C  0.69248665  0.55908602  0.69605871     0.04800
N2379       N  0.66796991  0.56585274  0.68921189     0.67300
H2380       H  0.72819361  0.60850600  0.69894861     0.16200
H2381       H  0.70737780  0.49968220  0.71032536     0.15900
N2382       N  0.76463319  0.54235947  0.72865137     0.75000
O2383       O  0.64341002  0.55379590  0.70711184    -0.38500
O2384       O  0.67296433  0.58752965  0.66893732    -0.38400
O2385       O  0.75949147  0.52541710  0.75407135    -0.39100
O2386       O  0.78578541  0.54585709  0.70857430    -0.39200
C2387       C  0.72610741  0.57975450  0.78605378    -0.11500
C2388       C  0.75811790  0.58891473  0.78804578     0.05500
C2389       C  0.76739825  0.57390854  0.81141804    -0.06800
C2390       C  0.74417550  0.54851012  0.83036322    -0.07500
C2391       C  0.71177148  0.53781121  0.82631138    -0.02100
C2392       C  0.70285321  0.55391544  0.80388851     0.04800
N2393       N  0.67030269  0.54197802  0.79556468     0.67300
H2394       H  0.71855096  0.59080382  0.76822643     0.16200
H2395       H  0.75136183  0.53628872  0.84734668     0.15900
N2396       N  0.79986228  0.58259103  0.81456922     0.75000
O2397       O  0.66024748  0.56083592  0.79298168    -0.38500
O2398       O  0.65407361  0.51460188  0.78357179    -0.38400
O2399       O  0.81824774  0.60585090  0.83233248    -0.39100
O2400       O  0.80805889  0.56322899  0.80620060    -0.39200
C2401       C  0.90758552  0.67061892  0.81184446    -0.11500
C2402       C  0.91287426  0.64537859  0.80836057     0.05500
C2403       C  0.89335920  0.62056856  0.78660270    -0.06800
C2404       C  0.86885610  0.62131799  0.76950548    -0.07500
C2405       C  0.86405964  0.64692259  0.77238362    -0.02100
C2406       C  0.88344720  0.67157154  0.79431146     0.04800
N2407       N  0.87979636  0.69829626  0.79840566     0.67300
H2408       H  0.92255365  0.68995850  0.82821808     0.16200
H2409       H  0.85350496  0.60173674  0.75367508     0.15900
N2410       N  0.89924099  0.59550770  0.78004883     0.75000
O2411       O  0.85945546  0.69650121  0.81867012    -0.38500
O2412       O  0.90221009  0.72528403  0.78970020    -0.38400
O2413       O  0.87631157  0.56738284  0.77766608    -0.39100
O2414       O  0.92665380  0.60200550  0.77151477    -0.39200
C2415       C  0.54842162  0.69496122  0.80110648    -0.11500
C2416       C  0.52955309  0.70170520  0.82134501     0.05500
C2417       C  0.53824843  0.73340277  0.82629153    -0.06800
C2418       C  0.56481419  0.75755609  0.80996742    -0.07500
C2419       C  0.58309460  0.75095305  0.78882996    -0.02100
C2420       C  0.57492841  0.71920866  0.78450386     0.04800
N2421       N  0.59103450  0.71086835  0.76093454     0.67300
H2422       H  0.54128326  0.67056861  0.79640304     0.16200
H2423       H  0.56965696  0.78140958  0.81157455     0.15900
N2424       N  0.51943315  0.74123528  0.84651679     0.75000
O2425       O  0.61650220  0.71227042  0.76892893    -0.38500
O2426       O  0.57600951  0.69466302  0.73616181    -0.38400
O2427       O  0.51509249  0.73331510  0.87663417    -0.39100
O2428       O  0.00927331  0.75798326  0.83566429    -0.39200
C2429       C  0.90656719  0.67304830  0.66728639    -0.11500
C2430       C  0.90762662  0.64537565  0.66264339     0.05500
C2431       C  0.88061035  0.61609840  0.67209192    -0.06800
C2432       C  0.85518528  0.61567808  0.68816106    -0.07500
C2433       C  0.85672200  0.64372818  0.69702808    -0.02100
C2434       C  0.88242785  0.67265704  0.68576769     0.04800
N2435       N  0.88572745  0.70209663  0.69471647     0.67300
H2436       H  0.92586183  0.69571830  0.65867276     0.16200
H2437       H  0.83548326  0.59338360  0.69649444     0.15900
N2438       N  0.87970677  0.58685338  0.66908102     0.75000
O2439       O  0.90982461  0.72163021  0.71094839    -0.38500
O2440       O  0.87011417  0.71177950  0.67913519    -0.38400
O2441       O  0.88732189  0.57632461  0.69364692    -0.39100
O2442       O  0.86342427  0.56813605  0.64629241    -0.39200
C2443       C  0.55392054  0.71774489  0.66853626    -0.11500
C2444       C  0.52382853  0.70261346  0.68344920     0.05500
C2445       C  0.52033695  0.71469984  0.71383825    -0.06800
C2446       C  0.54599692  0.74217667  0.72697099    -0.07500
C2447       C  0.57678153  0.75530597  0.71410348    -0.02100
C2448       C  0.58035487  0.74325218  0.68379782     0.04800
N2449       N  0.61060721  0.75530841  0.66860167     0.67300
H2450       H  0.55719009  0.70946375  0.64501628     0.16200
H2451       H  0.54205374  0.75204914  0.74888065     0.15900
N2452       N  0.99142646  0.69836147  0.73313284     0.75000
O2453       O  0.62622091  0.74224656  0.67547959    -0.38500
O2454       O  0.61593894  0.77000980  0.64149867    -0.38400
O2455       O  0.97829818  0.66904362  0.73886520    -0.39100
O2456       O  0.98013422  0.71374705  0.74590603    -0.39200
C2457       C  0.87500346  0.85054782  0.92467513    -0.11500
C2458       C  0.88718688  0.88287388  0.91887552     0.05500
C2459       C  0.87559285  0.89228182  0.89203884    -0.06800
C2460       C  0.85189641  0.86941697  0.87180760    -0.07500
C2461       C  0.83899841  0.83692510  0.87789293    -0.02100
C2462       C  0.85052471  0.82744571  0.90501749     0.04800
N2463       N  0.83649337  0.79471899  0.91411887     0.67300
H2464       H  0.88337779  0.84320721  0.94571575     0.16200
H2465       H  0.84399762  0.87720550  0.85073606     0.15900
N2466       N  0.88863881  0.92504238  0.88420604     0.75000
O2467       O  0.85382526  0.78420213  0.92354002    -0.38500
O2468       O  0.80670797  0.77719860  0.91642222    -0.38400
O2469       O  0.91620469  0.94099174  0.87209535    -0.39100
O2470       O  0.87148235  0.93712400  0.88603320    -0.39200
C2471       C  0.59481917  0.95243894  0.91070144    -0.11500
C2472       C  0.60690573  0.97305459  0.88333799     0.05500
C2473       C  0.59424156  0.99250649  0.87607602    -0.06800
C2474       C  0.57146970  0.99227961  0.89715130    -0.07500
C2475       C  0.55965633  0.97191588  0.92459248    -0.02100
C2476       C  0.57146017  0.95168426  0.93130815     0.04800
N2477       N  0.56125015  0.93148381  0.95990113     0.67300
H2478       H  0.60452650  0.93770928  0.91693904     0.16200
H2479       H  0.56176176  0.00705179  0.89111676     0.15900
N2480       N  0.60245625  0.01081965  0.84618726     0.75000
O2481       O  0.55194377  0.90250980  0.95708625    -0.38500
O2482       O  0.56485859  0.94320972  0.98832409    -0.38400
O2483       O  0.60026269  0.99759665  0.81894437    -0.39100
O2484       O  0.60604025  0.03806983  0.84628742    -0.39200
C2485       C  0.94417474  0.54412988  0.89734228    -0.11500
C2486       C  0.96414898  0.55386580  0.92506379     0.05500
C2487       C  0.98322097  0.58644724  0.93176415    -0.06800
C2488       C  0.98264144  0.60853482  0.91020575    -0.07500
C2489       C  0.96359668  0.59904663  0.88167017    -0.02100
C2490       C  0.94421053  0.56628415  0.87518981     0.04800
N2491       N  0.92644286  0.55514884  0.84514338     0.67300
H2492       H  0.92987647  0.51913048  0.89178427     0.16200
H2493       H  0.49727021  0.63359799  0.91603499     0.15900
N2494       N  0.50273503  0.59753717  0.96079557     0.75000
O2495       O  0.94004480  0.56619718  0.81773514    -0.38500
O2496       O  0.89874356  0.53114942  0.84559213    -0.38400
O2497       O  0.53074529  0.62092648  0.95900711    -0.39100
O2498       O  0.49079161  0.58622519  0.98877824    -0.39200
C2499       C  0.85497376  0.83458948  0.61542679    -0.11500
C2500       C  0.82394296  0.82867252  0.61129011     0.05500
C2501       C  0.81926667  0.84873871  0.58974160    -0.06800
C2502       C  0.84536814  0.87398843  0.57356838    -0.07500
C2503       C  0.87610548  0.87915182  0.57690596    -0.02100
C2504       C  0.88092046  0.85933219  0.59845156     0.04800
N2505       N  0.91203829  0.86452923  0.60423634     0.67300
H2506       H  0.85938852  0.82037816  0.63261446     0.16200
H2507       H  0.84123369  0.88863984  0.55668491     0.15900
N2508       N  0.78812130  0.84290111  0.58240045     0.75000
O2509       O  0.93434988  0.89149721  0.61279984    -0.38500
O2510       O  0.91635219  0.84142531  0.60469235    -0.38400
O2511       O  0.78316509  0.86558733  0.58148516    -0.39100
O2512       O  0.76660820  0.81589363  0.57292196    -0.39200
C2513       C  0.99438540  0.61121071  0.58875373    -0.11500
C2514       C  0.97241989  0.60254275  0.61467938     0.05500
C2515       C  0.95021024  0.57006103  0.62044180    -0.06800
C2516       C  0.94868580  0.54742393  0.59853412    -0.07500
C2517       C  0.96997664  0.55608712  0.57202736    -0.02100
C2518       C  0.99347743  0.58837612  0.56746470     0.04800
N2519       N  0.51557098  0.59866876  0.54026615     0.67300
H2520       H  0.51146578  0.63624333  0.58371674     0.16200
H2521       H  0.93162313  0.52260848  0.60311873     0.15900
N2522       N  0.93026717  0.55961661  0.64930682     0.75000
O2523       O  0.50574538  0.59156024  0.51096140    -0.38500
O2524       O  0.54477420  0.61741166  0.54543979    -0.38400
O2525       O  0.90328890  0.53461815  0.64850907    -0.39100
O2526       O  0.94138306  0.57260749  0.67678071    -0.39200
C2527       C  0.55768888  0.99158709  0.60559716    -0.11500
C2528       C  0.54694057  0.96798209  0.58149282     0.05500
C2529       C  0.55603758  0.94519947  0.58328478    -0.06800
C2530       C  0.57529049  0.94621086  0.60933438    -0.07500
C2531       C  0.58560860  0.96954212  0.63381192    -0.02100
C2532       C  0.57627397  0.99222008  0.63209054     0.04800
N2533       N  0.58366386  0.01466780  0.65802083     0.67300
H2534       H  0.55003240  0.00862327  0.60490011     0.16200
H2535       H  0.58281636  0.92907972  0.61002856     0.15900
N2536       N  0.54695137  0.92172561  0.55825035     0.75000
O2537       O  0.59090512  0.04261598  0.65111384    -0.38500
O2538       O  0.57865338  0.00549794  0.68777472    -0.38400
O2539       O  0.55566858  0.93004334  0.52872703    -0.39100
O2540       O  0.53304799  0.89279327  0.56610255    -0.39200
C2541       C  0.60999617  0.59128479  0.41502296    -0.11500
C2542       C  0.60222083  0.59715880  0.38355112     0.05500
C2543       C  0.57050240  0.57951694  0.37274143    -0.06800
C2544       C  0.54711313  0.55644052  0.39343457    -0.07500
C2545       C  0.55466775  0.55051465  0.42512520    -0.02100
C2546       C  0.58662230  0.56821136  0.43586020     0.04800
N2547       N  0.59591581  0.56259780  0.46746969     0.67300
H2548       H  0.63436945  0.60470787  0.42344894     0.16200
H2549       H  0.52284085  0.54327286  0.38469150     0.15900
N2550       N  0.56184791  0.58441611  0.34049342     0.75000
O2551       O  0.59572536  0.53726753  0.47284793    -0.38500
O2552       O  0.60759247  0.58430414  0.48869231    -0.38400
O2553       O  0.56693057  0.57226954  0.31571680    -0.39100
O2554       O  0.54641490  0.59824192  0.33712809    -0.39200
C2555       C  0.82784820  0.96394548  0.42016040    -0.11500
C2556       C  0.82817038  0.95772712  0.38654452     0.05500
C2557       C  0.85185662  0.95271549  0.37410981    -0.06800
C2558       C  0.87527574  0.95461007  0.39518282    -0.07500
C2559       C  0.87568587  0.96150185  0.42891352    -0.02100
C2560       C  0.85126387  0.96582040  0.44147204     0.04800
N2561       N  0.85008779  0.97267784  0.47551797     0.67300
H2562       H  0.80958147  0.96782247  0.42978910     0.16200
H2563       H  0.89335911  0.95082202  0.38486747     0.15900
N2564       N  0.85279850  0.94636577  0.33988731     0.75000
O2565       O  0.86878952  0.00014399  0.48625347    -0.38500
O2566       O  0.82753981  0.95282212  0.49354647    -0.38400
O2567       O  0.88320222  0.48305686  0.32357759    -0.39100
O2568       O  0.84554328  0.91897602  0.33102061    -0.39200
C2569       C  0.97788418  0.88953446  0.39453049    -0.11500
C2570       C  0.96594704  0.88036679  0.42688126     0.05500
C2571       C  0.95471671  0.84885217  0.43708996    -0.06800
C2572       C  0.95490457  0.82726414  0.41489594    -0.07500
C2573       C  0.96652521  0.83645676  0.38257764    -0.02100
C2574       C  0.97815615  0.86795905  0.37229510     0.04800
N2575       N  0.48906625  0.87794481  0.33931733     0.67300
H2576       H  0.98658349  0.91356804  0.38618671     0.16200
H2577       H  0.94592427  0.80309087  0.42296337     0.15900
N2578       N  0.94221824  0.83809026  0.46955429     0.75000
O2579       O  0.47255235  0.86174629  0.31516417    -0.38500
O2580       O  0.51364337  0.90459972  0.33398547    -0.38400
O2581       O  0.91264468  0.82396251  0.47438165    -0.39100
O2582       O  0.96014971  0.83866923  0.49221751    -0.39200
C2583       C  0.86543053  0.97830764  0.06197454    -0.11500
C2584       C  0.88212702  0.96384791  0.07295344     0.05500
C2585       C  0.87412664  0.94832647  0.10397597    -0.06800
C2586       C  0.84965633  0.94708441  0.12298335    -0.07500
C2587       C  0.83302736  0.96153884  0.11201288    -0.02100
C2588       C  0.84117553  0.97742105  0.08118894     0.04800
N2589       N  0.82465398  0.99223120  0.06882075     0.67300
H2590       H  0.87123909  0.99038662  0.03826805     0.16200
H2591       H  0.84391397  0.93512992  0.14676530     0.15900
N2592       N  0.88990426  0.93277236  0.11607472     0.75000
O2593       O  0.83996544  0.02079953  0.05952192    -0.38500
O2594       O  0.79497576  0.97614619  0.06477165    -0.38400
O2595       O  0.91123184  0.94592993  0.13771351    -0.39100
O2596       O  0.87927840  0.90418676  0.10891654    -0.39200
C2597       C  0.96137610  0.85079937  0.12218136    -0.11500
C2598       C  0.96892149  0.83011953  0.10676289     0.05500
C2599       C  0.97779283  0.83502176  0.07315599    -0.06800
C2600       C  0.97878070  0.86017382  0.05565599    -0.07500
C2601       C  0.97098900  0.88089153  0.07087555    -0.02100
C2602       C  0.96261967  0.87615059  0.10476670     0.04800
N2603       N  0.95493985  0.89654510  0.12189548     0.67300
H2604       H  0.95496117  0.84754888  0.14812737     0.16200
H2605       H  0.98533931  0.86320322  0.02976366     0.15900
N2606       N  0.98484633  0.81401341  0.05616928     0.75000
O2607       O  0.92627450  0.88740763  0.12776203    -0.38500
O2608       O  0.97658236  0.92063861  0.13636876    -0.38400
O2609       O  0.96373793  0.78519298  0.05319311    -0.39100
O2610       O  0.51104616  0.82502467  0.04164633    -0.39200
C2611       C  0.55389945  0.81381390  0.16869621    -0.11500
C2612       C  0.52767814  0.78358913  0.16210389     0.05500
C2613       C  0.52859128  0.75686234  0.17390294    -0.06800
C2614       C  0.55098654  0.76110471  0.19799792    -0.07500
C2615       C  0.57640094  0.79125538  0.20537199    -0.02100
C2616       C  0.57900695  0.81756671  0.18843720     0.04800
N2617       N  0.60712795  0.84803922  0.19012518     0.67300
H2618       H  0.55490696  0.83486889  0.15920312     0.16200
H2619       H  0.54985361  0.74070018  0.20955388     0.15900
N2620       N  0.00797498  0.72542616  0.16077833     0.75000
O2621       O  0.62802777  0.85542052  0.16815763    -0.38500
O2622       O  0.60647394  0.86983277  0.20554411    -0.38400
O2623       O  0.99887054  0.72207615  0.13111446    -0.39100
O2624       O  0.00083782  0.70112899  0.17788776    -0.39200
C2625       C  0.52985230  0.77281005  0.32224778    -0.11500
C2626       C  0.52170803  0.79495791  0.31238446     0.05500
C2627       C  0.53976987  0.81722439  0.28762609    -0.06800
C2628       C  0.56511983  0.81637100  0.27277429    -0.07500
C2629       C  0.57253685  0.79317956  0.28129690    -0.02100
C2630       C  0.55512944  0.77183916  0.30745052     0.04800
N2631       N  0.56162955  0.74826265  0.31895985     0.67300
H2632       H  0.51611870  0.75576388  0.34146844     0.16200
H2633       H  0.57887759  0.83376976  0.25412789     0.15900
N2634       N  0.03113315  0.83931097  0.27526450     0.75000
O2635       O  0.58220810  0.75565310  0.34123217    -0.38500
O2636       O  0.53999839  0.71957481  0.31659005    -0.38400
O2637       O  0.05166162  0.86848748  0.27454880    -0.39100
O2638       O  0.00382659  0.82968674  0.26364903    -0.39200
C2639       C  0.73646595  0.87573523  0.18719046    -0.11500
C2640       C  0.73421209  0.90288326  0.18300672     0.05500
C2641       C  0.70592866  0.90134558  0.19372964    -0.06800
C2642       C  0.68307176  0.87492455  0.21138664    -0.07500
C2643       C  0.68490319  0.84781584  0.21440875    -0.02100
C2644       C  0.71160127  0.84799671  0.20162421     0.04800
N2645       N  0.71391982  0.82036819  0.20296927     0.67300
H2646       H  0.75758862  0.87587696  0.17942480     0.16200
H2647       H  0.66269669  0.87486668  0.22147516     0.15900
N2648       N  0.69855161  0.92488201  0.18438725     0.75000
O2649       O  0.70427547  0.80196731  0.17858768    -0.38500
O2650       O  0.73301416  0.81928147  0.22301175    -0.38400
O2651       O  0.69993621  0.93230989  0.15428970    -0.39100
O2652       O  0.68408478  0.93265403  0.20436028    -0.39200
C2653       C  0.70139807  0.89552753  0.31400898    -0.11500
C2654       C  0.73183383  0.89956027  0.31519339     0.05500
C2655       C  0.73621964  0.87518003  0.30321668    -0.06800
C2656       C  0.71035102  0.84784332  0.28994012    -0.07500
C2657       C  0.68047387  0.84469815  0.28739352    -0.02100
C2658       C  0.67579592  0.86836751  0.30029996     0.04800
N2659       N  0.64542690  0.86558034  0.29877221     0.67300
H2660       H  0.69752447  0.91372878  0.32358306     0.16200
H2661       H  0.71399944  0.82977961  0.27961929     0.15900
N2662       N  0.76706515  0.87881399  0.30182385     0.75000
O2663       O  0.62456388  0.84862052  0.31990957    -0.38500
O2664       O  0.64189572  0.88491792  0.28145237    -0.38400
O2665       O  0.77052361  0.85594826  0.30962984    -0.39100
O2666       O  0.78983731  0.90310481  0.28838998    -0.39200
C2667       C  0.61269449  0.68408149  0.29767599    -0.11500
C2668       C  0.64086634  0.69447348  0.31533182     0.05500
C2669       C  0.66313322  0.72718769  0.31735571    -0.06800
C2670       C  0.65637851  0.74878165  0.30232824    -0.07500
C2671       C  0.62828154  0.73835254  0.28437233    -0.02100
C2672       C  0.60626772  0.70546965  0.28170237     0.04800
N2673       N  0.57805415  0.69323825  0.26194585     0.67300
H2674       H  0.59587993  0.65890503  0.29559981     0.16200
H2675       H  0.67379042  0.77385969  0.30352448     0.15900
N2676       N  0.69282701  0.73877802  0.33394976     0.75000
O2677       O  0.56733609  0.66723023  0.24716585    -0.38500
O2678       O  0.56299352  0.70754459  0.26011510    -0.38400
O2679       O  0.71846023  0.75805747  0.31947570    -0.39100
O2680       O  0.69341770  0.73143227  0.36375796    -0.39200
C2681       C  0.89637698  0.70569168  0.32753423    -0.11500
C2682       C  0.90488129  0.73658184  0.31871288     0.05500
C2683       C  0.88685515  0.74146059  0.29505694    -0.06800
C2684       C  0.86149752  0.71548397  0.27957227    -0.07500
C2685       C  0.85339373  0.68440218  0.28755840    -0.02100
C2686       C  0.87067847  0.67958167  0.31242846     0.04800
N2687       N  0.86502676  0.64873766  0.31986521     0.67300
H2688       H  0.91069203  0.70187808  0.34518949     0.16200
H2689       H  0.84912878  0.71967611  0.25991899     0.15900
N2690       N  0.89576659  0.77269410  0.28452079     0.75000
O2691       O  0.88508354  0.64166797  0.31063217    -0.38500
O2692       O  0.84564277  0.63259057  0.34250928    -0.38400
O2693       O  0.91046395  0.78357375  0.25759310    -0.39100
O2694       O  0.88592556  0.78798893  0.30020787    -0.39200
C2695       C  0.88903224  0.69351123  0.22447943    -0.11500
C2696       C  0.85829030  0.68239467  0.21247072     0.05500
C2697       C  0.85497572  0.69654788  0.18331938    -0.06800
C2698       C  0.88204756  0.72111238  0.16753361    -0.07500
C2699       C  0.91249208  0.73344055  0.18097851    -0.02100
C2700       C  0.91546707  0.72029542  0.21114362     0.04800
N2701       N  0.94453953  0.73470893  0.22970087     0.67300
H2702       H  0.89239480  0.68246494  0.24601942     0.16200
H2703       H  0.87904523  0.73049000  0.14445122     0.15900
N2704       N  0.82466965  0.68763043  0.16975931     0.75000
O2705       O  0.95285361  0.71771455  0.24491866    -0.38500
O2706       O  0.96058481  0.76435148  0.23323142    -0.38400
O2707       O  0.81678152  0.70823716  0.16848644    -0.39100
O2708       O  0.81218102  0.66511880  0.14950624    -0.39200
C2709       C  0.71624939  0.60446931  0.28407263    -0.11500
C2710       C  0.74774512  0.62973126  0.28374993     0.05500
C2711       C  0.75499951  0.65833659  0.29889657    -0.06800
C2712       C  0.73087367  0.66137340  0.31336772    -0.07500
C2713       C  0.69927251  0.63625752  0.31328070    -0.02100
C2714       C  0.69197320  0.60730159  0.29863915     0.04800
N2715       N  0.65999024  0.58103288  0.29702242     0.67300
H2716       H  0.71031466  0.58260248  0.27214096     0.16200
H2717       H  0.73686381  0.68369355  0.32451072     0.15900
N2718       N  0.78637273  0.68524141  0.29823709     0.75000
O2719       O  0.63836935  0.58464215  0.28495834    -0.38500
O2720       O  0.65394864  0.55355857  0.30441600    -0.38400
O2721       O  0.79347172  0.70596925  0.27607390    -0.39100
O2722       O  0.80272089  0.69268773  0.32428615    -0.39200
C2723       C  0.82640002  0.57003145  0.29120760    -0.11500
C2724       C  0.80008543  0.57371846  0.28852799     0.05500
C2725       C  0.77044007  0.54944317  0.30025528    -0.06800
C2726       C  0.76730707  0.52168765  0.31348556    -0.07500
C2727       C  0.79335775  0.51739943  0.31520538    -0.02100
C2728       C  0.82341721  0.54214383  0.30413720     0.04800
N2729       N  0.85061796  0.53864440  0.30374109     0.67300
H2730       H  0.84903871  0.58817280  0.28130147     0.16200
H2731       H  0.74419950  0.50318299  0.32218602     0.15900
N2732       N  0.74289209  0.55190688  0.29747226     0.75000
O2733       O  0.84888556  0.51465690  0.29065907    -0.38500
O2734       O  0.87728964  0.56116752  0.31290263    -0.38400
O2735       O  0.72223270  0.53558860  0.27612052    -0.39100
O2736       O  0.73550626  0.56328428  0.32122289    -0.39200
C2737       C  0.77380678  0.54935923  0.20639066    -0.11500
C2738       C  0.80359010  0.57423794  0.21539105     0.05500
C2739       C  0.83089148  0.57294516  0.20750964    -0.06800
C2740       C  0.82724473  0.54561121  0.19255831    -0.07500
C2741       C  0.79715558  0.52076722  0.18306685    -0.02100
C2742       C  0.77043446  0.52388643  0.18818350     0.04800
N2743       N  0.74041452  0.00363289  0.17269146     0.67300
H2744       H  0.75308431  0.55014809  0.21325646     0.16200
H2745       H  0.84796395  0.54375711  0.18830778     0.15900
N2746       N  0.86217760  0.59883290  0.21457538     0.75000
O2747       O  0.71510650  0.99835036  0.18649646    -0.38500
O2748       O  0.73946923  0.99580498  0.14290615    -0.38400
O2749       O  0.88375376  0.59361679  0.22321784    -0.39100
O2750       O  0.86959501  0.62666531  0.20705206    -0.39200
C2751       C  0.60864782  0.60914230  0.07353382    -0.11500
C2752       C  0.60972313  0.60352876  0.10726539     0.05500
C2753       C  0.58604709  0.57472869  0.12130616    -0.06800
C2754       C  0.56156854  0.55204618  0.10160689    -0.07500
C2755       C  0.56009419  0.55739275  0.06763814    -0.02100
C2756       C  0.58423853  0.58643118  0.05361380     0.04800
N2757       N  0.58419664  0.59358433  0.01935676     0.67300
H2758       H  0.62675113  0.63135313  0.06265255     0.16200
H2759       H  0.54365279  0.53010757  0.11309716     0.15900
N2760       N  0.58624983  0.56855262  0.15582907     0.75000
O2761       O  0.56736866  0.60449096  0.00941165    -0.38500
O2762       O  0.60444511  0.59367790  0.00016929    -0.38400
O2763       O  0.57262741  0.57713379  0.17596664    -0.39100
O2764       O  0.59772787  0.55226921  0.16588445    -0.39200
C2765       C  0.69922488  0.60809141  0.18364840    -0.11500
C2766       C  0.70483220  0.63876641  0.17889125     0.05500
C2767       C  0.73461992  0.66490300  0.18829903    -0.06800
C2768       C  0.75592141  0.65957145  0.20596633    -0.07500
C2769       C  0.75021083  0.62902381  0.21066388    -0.02100
C2770       C  0.72213424  0.60316018  0.19815211     0.04800
N2771       N  0.71691628  0.57195213  0.19846672     0.67300
H2772       H  0.67694211  0.58767377  0.17613586     0.16200
H2773       H  0.77762901  0.67942051  0.21541030     0.15900
N2774       N  0.74443620  0.69661027  0.17815820     0.75000
O2775       O  0.69676581  0.55174535  0.21829448    -0.38500
O2776       O  0.72368166  0.56242447  0.17266802    -0.38400
O2777       O  0.76313640  0.71972008  0.19598010    -0.39100
O2778       O  0.73949204  0.70183407  0.14883461    -0.39200
C2779       C  0.61725504  0.69625215  0.17592852    -0.11500
C2780       C  0.64659293  0.69794136  0.18011086     0.05500
C2781       C  0.67017417  0.72339049  0.19922139    -0.06800
C2782       C  0.66255260  0.74308036  0.21634539    -0.07500
C2783       C  0.63379154  0.74160693  0.21119997    -0.02100
C2784       C  0.61164024  0.71896762  0.18937450     0.04800
N2785       N  0.58376061  0.71906880  0.17978515     0.67300
H2786       H  0.59826174  0.67756912  0.16188067     0.16200
H2787       H  0.68007678  0.76111549  0.23240291     0.15900
N2788       N  0.70273874  0.73198439  0.19887834     0.75000
O2789       O  0.58668949  0.74017384  0.15981295    -0.38500
O2790       O  0.55702269  0.69401702  0.18279235    -0.38400
O2791       O  0.71765612  0.73988724  0.17182541    -0.39100
O2792       O  0.71810939  0.73867878  0.22558566    -0.39200
loop_ 
_geom_bond_atom_site_label_1 
_geom_bond_atom_site_label_2 
_geom_bond_distance 
_geom_bond_site_symmetry_2 
_ccdc_geom_bond_type 
C1            C2   1.402       .  A
C1            C6   1.397       .  A
C1          C658   1.478       .  S
C2            C3   1.415       .  A
C2            H7   1.079       .  S
C3            C4   1.409       .  A
C3          C686   1.511       .  S
C4            C5   1.405       .  A
C4            H8   1.079       .  S
C5            C6   1.404       .  A
C5          C672   1.489       .  S
C6            H9   1.083       .  S
C10          H11   1.105       .  S
C10          C16   1.542       .  S
C10          C15   1.541       .  S
C10          C14   1.533       .  S
C12          H13   1.109       .  S
C12          C18   1.540       .  S
C12          C17   1.540       .  S
C12          C19   1.533       .  S
C14          C17   1.369       .  D
C14         C644   1.483       .  S
C15          C18   1.387       .  D
C15         C602   1.503       .  S
C16          C19   1.372       .  D
C16         C675   1.479       .  S
C17         C630   1.482       .  S
C18         C591   1.490       .  S
C19         C616   1.491       .  S
C20          H21   1.111       .  S
C20          C26   1.535       .  S
C20          C25   1.532       .  S
C20          C24   1.541       .  S
C22          H23   1.104       .  S
C22          C28   1.540       .  S
C22          C27   1.546       .  S
C22          C29   1.531       .  S
C24          C27   1.387       .  D
C24         C521   1.487       .  S
C25          C28   1.374       .  D
C25         C689   1.483       .  S
C26          C29   1.368       .  D
C26         C549   1.480       .  S
C27         C535   1.508       .  S
C28         C577   1.484       .  S
C29         C563   1.481       .  S
C30          C31   1.410       .  A
C30          C35   1.408       .  A
C30         C504   1.486       .  S
C31          C32   1.410       .  A
C31        H1432   1.083       .  S
C32          C33   1.401       .  A
C32        C1914   1.501       .  S
C33          C34   1.398       .  A
C33          H37   1.074       .  S
C34          C35   1.408       .  A
C34         C605   1.499       .  S
C35          H38   1.083       .  S
H36        C1427   1.083   1_455  S
C39          C40   1.404       .  A
C39          C44   1.409       .  A
C39         C493   1.483       .  S
C40          C41   1.403       .  A
C40         H743   1.083       .  S
C41          C42   1.402       .  A
C41        C1345   1.488       .  S
C42          C43   1.405       .  A
C42          H46   1.082       .  S
C43          C44   1.412       .  A
C43         C546   1.502       .  S
C44          H47   1.082       .  S
H45         C738   1.083   1_545  S
C48          C49   1.410       .  A
C48          C53   1.404       .  A
C48         C479   1.481       .  S
C49          C50   1.406       .  A
C49        H1450   1.084       .  S
C50          C51   1.399       .  A
C50        C1928   1.479       .  S
C51          C52   1.399       .  A
C51          H55   1.083       .  S
C52          C53   1.400       .  A
C52         C588   1.474       .  S
C53          H56   1.084       .  S
H54        C1445   1.084   1_455  S
C57          C58   1.400       .  A
C57          C62   1.401       .  A
C57         C462   1.472       .  S
C58          C59   1.403       .  A
C58         H761   1.084       .  S
C59          C60   1.406       .  A
C59        C1331   1.487       .  S
C60          C61   1.406       .  A
C60          H64   1.084       .  S
C61          C62   1.405       .  A
C61         C560   1.487       .  S
C62          H65   1.084       .  S
H63         C756   1.084   1_545  S
C66          C67   1.403       .  A
C66          C71   1.401       .  A
C66         C448   1.478       .  S
C67          C68   1.406       .  A
C67          H72   1.084       .  S
C68          C69   1.407       .  A
C68         C619   1.484       .  S
C69          C70   1.403       .  A
C69          H73   1.084       .  S
C70          C71   1.401       .  A
C70         C574   1.480       .  S
C71          H74   1.084       .  S
Zn75         O79   1.966       .  S
Zn75         O84   2.031       .  S
Zn75         O91   2.034       .  S
Zn75       O1476   2.018       .  S
Zn76       O2173   1.954   1_445  S
Zn76         O81   2.005       .  S
Zn76        O781   1.989   1_545  S
Zn76       O1483   2.012   1_455  S
Zn77         O79   1.955       .  S
Zn77         O82   2.020       .  S
Zn77         O88   2.014       .  S
Zn77       O2179   2.027       .  S
Zn78         O79   1.961       .  S
Zn78         O86   2.014       .  S
Zn78         O90   2.023       .  S
Zn78        O787   2.029       .  S
O79       Zn2170   1.954       .  S
O80       Zn1471   2.019   1_455  S
O80          C92   1.274       .  A
O81          C93   1.271       .  A
O82          C94   1.274       .  A
O83        Zn774   1.988       .  S
O83          C92   1.271       .  A
O84          C94   1.275       .  A
O85       Zn2171   2.022   1_445  S
O85          C93   1.274       .  A
O86          C95   1.273       .  A
O87       Zn1472   2.012       .  S
O87          C96   1.272       .  A
O88          C95   1.276       .  A
O89        Zn776   2.026   1_545  S
O89          C96   1.275       .  A
O90          C97   1.274       .  A
O91          C97   1.275       .  A
C92         C434   1.473       .  S
C93         C451   1.483       .  S
C94         C476   1.491       .  S
C95         C465   1.489       .  S
C96         C423   1.484       .  S
C97         C409   1.488       .  S
Zn98       O2196   1.967   1_445  S
Zn98        O107   2.014   1_556  S
Zn98        O801   2.037   1_545  S
Zn98       O1510   2.038   1_455  S
Zn99        O102   1.966       .  S
Zn99        O104   2.022   1_556  S
Zn99        O110   2.024       .  S
Zn99       O1502   2.019       .  S
Zn100       O102   1.968   1_554  S
Zn100       O108   2.046       .  S
Zn100       O111   2.038       .  S
Zn100      O2199   2.037       .  S
Zn101       O102   1.966       .  S
Zn101       O109   2.032   1_556  S
Zn101       O112   2.009       .  S
Zn101       O811   2.020       .  S
O102      Zn2192   1.967       .  S
O103       Zn796   2.037       .  S
O103        C115   1.276       .  A
O104        C116   1.274       .  A
O105      Zn2194   2.044   1_445  S
O105        C117   1.279       .  A
O106      Zn1495   2.019   1_455  S
O106        C115   1.274       .  A
O107        C117   1.273       .  A
O108        C116   1.276       .  A
O109        C118   1.276       .  A
O110        C119   1.274       .  A
O111        C118   1.277       .  A
O112        C119   1.273       .  A
O113       Zn799   2.017   1_545  S
O113        C120   1.272       .  A
O114      Zn1494   2.038       .  S
O114        C120   1.276       .  A
C115        C381   1.486       .  S
C116        C507   1.498       .  S
C117        C661   1.496       .  S
C118        C490   1.494       .  S
C119        C364   1.476       .  S
C120        C392   1.481       .  S
C121        C122   1.410       .  A
C121        C126   1.411       .  A
C121        C420   1.489       .  S
C122        C123   1.403       .  A
C122        H127   1.081       .  S
C123        C124   1.403       .  A
C123        C336   1.499       .  S
C124        C125   1.400       .  A
C124        H128   1.078       .  S
C125        C126   1.409       .  A
C125       C1746   1.498       .  S
C126       H1525   1.083       .  S
H129       C1522   1.083   1_455  S
C130        C131   1.417       .  A
C130        C135   1.407       .  A
C130        C395   1.495       .  S
C131        C132   1.413       .  A
C131        H136   1.083       .  S
C132        C133   1.398       .  A
C132        C308   1.491       .  S
C133        C134   1.397       .  A
C133        H137   1.081       .  S
C134        C135   1.396       .  A
C134       C1718   1.473       .  S
C135       H1534   1.084       .  S
H138       C1531   1.084   1_455  S
C139        H140   1.111       .  S
C139        C145   1.541       .  S
C139        C144   1.533       .  S
C139        C143   1.537       .  S
C141        H142   1.107       .  S
C141        C147   1.537       .  S
C141        C146   1.543       .  S
C141        C148   1.533       .  S
C143        C146   1.382       .  D
C143        C252   1.498       .  S
C144        C147   1.378       .  D
C144        C280   1.489       .  S
C145        C148   1.379       .  D
C145        C339   1.482       .  S
C146        C266   1.494       .  S
C147        C294   1.488       .  S
C148        C311   1.495       .  S
C149        H150   1.105       .  S
C149        C155   1.561       .  S
C149        C154   1.563       .  S
C149        C153   1.537       .  S
C151        H152   1.096       .  S
C151        C157   1.529       .  S
C151        C156   1.545       .  S
C151        C158   1.519       .  S
C153        C156   1.382       .  D
C153        C353   1.508       .  S
C154        C157   1.396       .  D
C154        C213   1.518       .  S
C155        C158   1.373       .  D
C155        C241   1.504       .  S
C156        C325   1.484       .  S
C157        C196   1.507       .  S
C158        C227   1.503       .  S
C159        C160   1.409       .  A
C159        C164   1.402       .  A
C159        C437   1.480       .  S
C160        C161   1.407       .  A
C160        H863   1.082       .  S
C161        C162   1.408       .  A
C161        C981   1.503       .  S
C162        C163   1.400       .  A
C162        H166   1.076       .  S
C163        C164   1.394       .  A
C163        C238   1.474       .  S
C164        H167   1.084       .  S
H165        C858   1.082   1_545  S
C168        C169   1.406       .  A
C168        C173   1.409       .  A
C168        C406   1.499       .  S
C169        C170   1.406       .  A
C169        H174   1.082       .  S
C170        C171   1.401       .  A
C170        C210   1.496       .  S
C171        C172   1.410       .  A
C171        H175   1.082       .  S
C172        C173   1.411       .  A
C172        C255   1.505       .  S
C173        H176   1.078       .  S
C177        C178   1.407       .  A
C177        C182   1.408       .  A
C177        C367   1.490       .  S
C178        C179   1.399       .  A
C178        H183   1.084       .  S
C179        C180   1.400       .  A
C179        C199   1.471       .  S
C180        C181   1.398       .  A
C180        H184   1.083       .  S
C181        C182   1.402       .  A
C181        C269   1.473       .  S
C182        H185   1.083       .  S
C186        C187   1.411       .  A
C186        C191   1.403       .  A
C186        C378   1.497       .  S
C187        C188   1.421       .  A
C187        H192   1.081       .  S
C188        C189   1.408       .  A
C188        C224   1.517       .  S
C189        C190   1.399       .  A
C189        H193   1.073       .  S
C190        C191   1.401       .  A
C190        C995   1.483       .  S
C191        H892   1.083       .  S
H194        C889   1.083       .  S
C195        C196   1.410       .  A
C195        C200   1.401       .  A
C195        H202   1.084       .  S
C196        C197   1.426       .  A
C197        C198   1.399       .  A
C197        N204   1.429       .  S
C198        C199   1.393       .  A
C198        H203   1.084       .  S
C199        C200   1.405       .  A
C200        N201   1.430       .  S
N201        O205   1.262       .  A
N201        O206   1.262       .  A
N204        O208   1.263       .  A
N204        O207   1.261       .  A
C209        C210   1.399       .  A
C209        C214   1.403       .  A
C209        H216   1.084       .  S
C210        C211   1.416       .  A
C211        C212   1.400       .  A
C211        N218   1.433       .  S
C212        C213   1.409       .  A
C212        H217   1.079       .  S
C213        C214   1.419       .  A
C214        N215   1.421       .  S
N215        O219   1.263       .  A
N215        O220   1.261       .  A
N218        O222   1.263       .  A
N218        O221   1.262       .  A
C223        C224   1.411       .  A
C223        C228   1.405       .  A
C223        H230   1.081       .  S
C224        C225   1.427       .  A
C225        C226   1.396       .  A
C225        N232   1.426       .  S
C226        C227   1.397       .  A
C226        H231   1.081       .  S
C227        C228   1.411       .  A
C228        N229   1.426       .  S
N229        O233   1.262       .  A
N229        O234   1.262       .  A
N232        O236   1.259       .  A
N232        O235   1.262       .  A
C237        C238   1.395       .  A
C237        C242   1.397       .  A
C237        H244   1.085       .  S
C238        C239   1.405       .  A
C239        C240   1.408       .  A
C239        N246   1.433       .  S
C240        C241   1.416       .  A
C240        H245   1.084       .  S
C241        C242   1.411       .  A
C242        N243   1.423       .  S
N243        O247   1.263       .  A
N243        O248   1.261       .  A
N246        O250   1.263       .  A
N246        O249   1.262       .  A
C251        C252   1.406       .  A
C251        C256   1.410       .  A
C251        H258   1.081       .  S
C252        C253   1.416       .  A
C253        C254   1.394       .  A
C253        N260   1.439       .  S
C254        C255   1.406       .  A
C254        H259   1.074       .  S
C255        C256   1.419       .  A
C256        N257   1.437       .  S
N257        O261   1.263       .  A
N257        O262   1.263       .  A
N260        O264   1.259       .  A
N260        O263   1.263       .  A
C265        C266   1.406       .  A
C265        C270   1.404       .  A
C265        H272   1.084       .  S
C266        C267   1.415       .  A
C267        C268   1.398       .  A
C267        N274   1.427       .  S
C268        C269   1.395       .  A
C268        H273   1.084       .  S
C269        C270   1.407       .  A
C270        N271   1.429       .  S
N271        O275   1.262       .  A
N271        O276   1.262       .  A
N274        O278   1.259       .  A
N274        O277   1.263       .  A
C279        C280   1.402       .  A
C279        C284   1.407       .  A
C279        H286   1.082       .  S
C280        C281   1.405       .  A
C281        C282   1.397       .  A
C281        N288   1.428       .  S
C282        C283   1.409       .  A
C282        H287   1.081       .  S
C283        C284   1.420       .  A
C283        C859   1.503   1_545  S
C284        N285   1.433       .  S
N285        O289   1.262       .  A
N285        O290   1.263       .  A
N288        O292   1.260       .  A
N288        O291   1.262       .  A
C293        C294   1.399       .  A
C293        C298   1.393       .  A
C293        H300   1.076       .  S
C294        C295   1.411       .  A
C295        C296   1.406       .  A
C295        N302   1.430       .  S
C296        C297   1.407       .  A
C296        H301   1.084       .  S
C297        C298   1.412       .  A
C297        C888   1.485       .  S
C298        N299   1.432       .  S
N299        O303   1.262       .  A
N299        O304   1.262       .  A
N302        O306   1.262       .  A
N302        O305   1.262       .  A
C307        C308   1.406       .  A
C307        C312   1.404       .  A
C307        H314   1.084       .  S
C308        C309   1.413       .  A
C309        C310   1.406       .  A
C309        N316   1.434       .  S
C310        C311   1.406       .  A
C310        H315   1.081       .  S
C311        C312   1.411       .  A
C312        N313   1.429       .  S
N313        O317   1.262       .  A
N313        O318   1.261       .  A
N316        O320   1.262       .  A
N316        O319   1.262       .  A
C321        C322   1.401       .  A
C321        C326   1.401       .  A
C321        H328   1.087       .  S
C322        C323   1.407       .  A
C322       C1530   1.473   1_455  S
C323        C324   1.394       .  A
C323        N330   1.431       .  S
C324        C325   1.397       .  A
C324        H329   1.091       .  S
C325        C326   1.416       .  A
C326        N327   1.433       .  S
N327        O331   1.259       .  A
N327        O332   1.262       .  A
N330       O1730   1.263       .  A
N330        O333   1.262       .  A
O334       N1726   1.263       .  A
C335        C336   1.407       .  A
C335        C340   1.396       .  A
C335        H342   1.083       .  S
C336        C337   1.418       .  A
C337        C338   1.401       .  A
C337        N344   1.426       .  S
C338        C339   1.396       .  A
C338        H343   1.076       .  S
C339        C340   1.405       .  A
C340        N341   1.426       .  S
N341        O345   1.263       .  A
N341        O346   1.260       .  A
N344        O348   1.262       .  A
N344        O347   1.261       .  A
C349        C350   1.403       .  A
C349        C354   1.406       .  A
C349        H356   1.083       .  S
C350        C351   1.419       .  A
C350       C1521   1.498   1_455  S
C351        C352   1.398       .  A
C351       N1754   1.435   1_455  S
C352        C353   1.403       .  A
C352        H357   1.080       .  S
C353        C354   1.417       .  A
C354        N355   1.425       .  S
N355        O359   1.261       .  A
N355        O360   1.262       .  A
N358       C1747   1.435       .  S
N358        O362   1.262       .  A
N358        O361   1.263       .  A
C363        C364   1.402       .  A
C363        C368   1.404       .  A
C363        H370   1.084       .  S
C364        C365   1.409       .  A
C365        C366   1.398       .  A
C365        N372   1.431       .  S
C366        C367   1.407       .  A
C366        H371   1.084       .  S
C367        C368   1.418       .  A
C368        N369   1.435       .  S
N369        O373   1.262       .  A
N369        O374   1.263       .  A
N372        O376   1.262       .  A
N372        O375   1.262       .  A
C377        C378   1.406       .  A
C377        C382   1.406       .  A
C377        H384   1.084       .  S
C378        C379   1.417       .  A
C379        C380   1.404       .  A
C379        N386   1.432       .  S
C380        C381   1.402       .  A
C380        H385   1.084       .  S
C381        C382   1.415       .  A
C382        N383   1.434       .  S
N383        O387   1.262       .  A
N383        O388   1.263       .  A
N386        O390   1.263       .  A
N386        O389   1.261       .  A
C391        C392   1.405       .  A
C391        C396   1.408       .  A
C391        H398   1.084       .  S
C392        C393   1.409       .  A
C393        C394   1.402       .  A
C393       N1796   1.434       .  S
C394        C395   1.409       .  A
C394       H1795   1.084       .  S
C395        C396   1.416       .  A
C396        N397   1.434       .  S
N397        O401   1.262       .  A
N397        O402   1.262       .  A
H399       C1790   1.084       .  S
N400       C1789   1.434   1_455  S
N400        O404   1.263   1_455  A
N400        O403   1.262       .  A
C405        C406   1.408       .  A
C405        C410   1.405       .  A
C405        H412   1.083       .  S
C406        C407   1.420       .  A
C407        C408   1.404       .  A
C407        N414   1.436       .  S
C408        C409   1.404       .  A
C408        H413   1.084       .  S
C409        C410   1.414       .  A
C410        N411   1.434       .  S
N411        O415   1.262       .  A
N411        O416   1.262       .  A
N414        O418   1.263       .  A
N414        O417   1.263       .  A
C419        C420   1.404       .  A
C419        C424   1.405       .  A
C419       H1822   1.084       .  S
C420        C421   1.416       .  A
C421        C422   1.402       .  A
C421        N428   1.437       .  S
C422        C423   1.402       .  A
C422        H427   1.084       .  S
C423        C424   1.415       .  A
C424       N1821   1.433       .  S
N425       C1820   1.433   1_455  S
N425        O429   1.262       .  A
N425        O430   1.262       .  A
H426       C1815   1.084   1_455  S
N428        O432   1.263       .  A
N428        O431   1.263       .  A
C433        C434   1.403       .  A
C433        C438   1.398       .  A
C433        H440   1.084       .  S
C434        C435   1.410       .  A
C435        C436   1.400       .  A
C435        N442   1.432       .  S
C436        C437   1.406       .  A
C436        H441   1.084       .  S
C437        C438   1.413       .  A
C438        N439   1.436       .  S
N439        O443   1.263       .  A
N439        O444   1.263       .  A
N442        O446   1.262       .  A
N442        O445   1.262       .  A
C447        C448   1.401       .  A
C447        C452   1.402       .  A
C447        H454   1.084       .  S
C448        C449   1.410       .  A
C449        C450   1.399       .  A
C449        N456   1.430       .  S
C450        C451   1.405       .  A
C450        H455   1.084       .  S
C451        C452   1.416       .  A
C452        N453   1.431       .  S
N453        O457   1.262       .  A
N453        O458   1.262       .  A
N456        O460   1.262       .  A
N456        O459   1.262       .  A
C461        C462   1.399       .  A
C461        C466   1.403       .  A
C461        H468   1.084       .  S
C462        C463   1.404       .  A
C463        C464   1.396       .  A
C463        N470   1.428       .  S
C464        C465   1.407       .  A
C464        H469   1.083       .  S
C465        C466   1.420       .  A
C466        N467   1.430       .  S
N467        O471   1.262       .  A
N467        O472   1.262       .  A
N470        O474   1.261       .  A
N470       O1171   1.262       .  A
O473       N1168   1.262       .  A
C475        C476   1.409       .  A
C475        C480   1.405       .  A
C475        H482   1.083       .  S
C476        C477   1.414       .  A
C477        C478   1.402       .  A
C477        N484   1.429       .  S
C478        C479   1.403       .  A
C478        H483   1.084       .  S
C479        C480   1.411       .  A
C480       N1877   1.436       .  S
N481       C1876   1.435       .  S
N481        O485   1.263       .  A
N481        O486   1.262   1_655  A
N484        O488   1.262       .  A
N484        O487   1.262       .  A
C489        C490   1.409       .  A
C489        C494   1.405       .  A
C489        H496   1.083       .  S
C490        C491   1.416       .  A
C491        C492   1.403       .  A
C491        N498   1.428       .  S
C492        C493   1.401       .  A
C492        H497   1.084       .  S
C493        C494   1.407       .  A
C494        N495   1.429       .  S
N495        O499   1.262       .  A
N495        O500   1.262       .  A
N498        O502   1.261       .  A
N498        O501   1.262       .  A
C503        C504   1.402       .  A
C503        C508   1.405       .  A
C503        H510   1.084       .  S
C504        C505   1.408       .  A
C505        C506   1.404       .  A
C505        N512   1.430       .  S
C506        C507   1.410       .  A
C506        H511   1.083       .  S
C507        C508   1.418       .  A
C508        N509   1.428       .  S
N509        O513   1.261       .  A
N509        O514   1.262       .  A
N512       O1912   1.262       .  A
N512        O515   1.262       .  A
O516       N1908   1.262   1_455  A
C517        C518   1.407       .  A
C517        C522   1.402       .  A
C517        H524   1.082       .  S
C518        C519   1.421       .  A
C518       C1428   1.501   1_455  S
C519        C520   1.404       .  A
C519       N1922   1.440       .  S
C520        C521   1.397       .  A
C520        H525   1.082       .  S
C521        C522   1.410       .  A
C522        N523   1.426       .  S
N523        O527   1.261       .  A
N523        O528   1.262       .  A
N526       C1915   1.440       .  S
N526        O530   1.263       .  A
N526        O529   1.263       .  A
C531        C532   1.399       .  A
C531        C536   1.404       .  A
C531        H538   1.086       .  S
C532        C533   1.404       .  A
C532       C1446   1.480   1_455  S
C533        C534   1.401       .  A
C533       N1936   1.429       .  S
C534        C535   1.408       .  A
C534        H539   1.085       .  S
C535        C536   1.422       .  A
C536        N537   1.429       .  S
N537        O541   1.262       .  A
N537        O542   1.261       .  A
N540       C1929   1.428       .  S
N540        O544   1.262       .  A
N540        O543   1.262       .  A
C545        C546   1.409       .  A
C545        C550   1.404       .  A
C545        H552   1.082       .  S
C546        C547   1.422       .  A
C547        C548   1.395       .  A
C547        N554   1.431       .  S
C548        C549   1.390       .  A
C548        H553   1.082       .  S
C549        C550   1.407       .  A
C550        N551   1.426       .  S
N551        O555   1.261       .  A
N551        O556   1.262       .  A
N554        O558   1.263       .  A
N554        O557   1.261       .  A
C559        C560   1.405       .  A
C559        C564   1.400       .  A
C559        H566   1.084       .  S
C560        C561   1.416       .  A
C561        C562   1.402       .  A
C561        N568   1.433       .  S
C562        C563   1.399       .  A
C562        H567   1.082       .  S
C563        C564   1.407       .  A
C564        N565   1.429       .  S
N565        O569   1.261       .  A
N565        O570   1.262       .  A
N568        O572   1.262       .  A
N568        O571   1.262       .  A
C573        C574   1.402       .  A
C573        C578   1.402       .  A
C573        H580   1.084       .  S
C574        C575   1.410       .  A
C575        C576   1.403       .  A
C575        N582   1.433       .  S
C576        C577   1.404       .  A
C576        H581   1.084       .  S
C577        C578   1.416       .  A
C578        N579   1.440       .  S
N579        O583   1.263       .  A
N579        O584   1.261       .  A
N582        O586   1.262       .  A
N582        O585   1.262       .  A
C587        C588   1.400       .  A
C587        C592   1.401       .  A
C587        H594   1.084       .  S
C588        C589   1.406       .  A
C589        C590   1.398       .  A
C589        N596   1.429       .  S
C590        C591   1.406       .  A
C590        H595   1.083       .  S
C591        C592   1.413       .  A
C592        N593   1.428       .  S
N593        O597   1.262       .  A
N593        O598   1.262       .  A
N596        O600   1.262       .  A
N596        O599   1.262       .  A
C601        C602   1.403       .  A
C601        C606   1.395       .  A
C601        H608   1.082       .  S
C602        C603   1.418       .  A
C603        C604   1.406       .  A
C603        N610   1.428       .  S
C604        C605   1.404       .  A
C604        H609   1.083       .  S
C605        C606   1.421       .  A
C606        N607   1.438       .  S
N607        O611   1.263       .  A
N607        O612   1.262       .  A
N610        O614   1.262       .  A
N610        O613   1.262       .  A
C615        C616   1.401       .  A
C615        C620   1.403       .  A
C615        H622   1.079       .  S
C616        C617   1.410       .  A
C617        C618   1.400       .  A
C617        N624   1.425       .  S
C618        C619   1.401       .  A
C618        H623   1.084       .  S
C619        C620   1.415       .  A
C620        N621   1.434       .  S
N621        O625   1.262       .  A
N621        O626   1.262       .  A
N624        O628   1.262       .  A
N624        O627   1.262       .  A
C629        C630   1.400       .  A
C629        C634   1.402       .  A
C629        H636   1.081       .  S
C630        C631   1.406       .  A
C631        C632   1.398       .  A
C631        N638   1.426       .  S
C632        C633   1.403       .  A
C632        H637   1.084       .  S
C633        C634   1.416       .  A
C633        C757   1.483   1_545  S
C634        N635   1.435       .  S
N635        O639   1.262       .  A
N635        O640   1.262       .  A
N638        O642   1.261       .  A
N638        O641   1.262       .  A
C643        C644   1.391       .  A
C643        C648   1.396       .  A
C643        H650   1.076       .  S
C644        C645   1.414       .  A
C645        C646   1.408       .  A
C645        N652   1.435       .  S
C646        C647   1.405       .  A
C646        H651   1.083       .  S
C647        C648   1.415       .  A
C647        C739   1.490   1_545  S
C648       N1347   1.436       .  S
N649       C1346   1.436       .  S
N649        O653   1.263       .  A
N649        O654   1.262       .  A
N652        O656   1.260       .  A
N652        O655   1.263       .  A
C657        C658   1.398       .  A
C657        C662   1.404       .  A
C657        H664   1.084       .  S
C658        C659   1.408       .  A
C659        C660   1.401       .  A
C659        N666   1.431       .  S
C660        C661   1.407       .  A
C660        H665   1.083       .  S
C661        C662   1.422       .  A
C662        N663   1.429       .  S
N663        O667   1.262       .  A
N663        O668   1.262       .  A
N666        O670   1.262       .  A
N666        O669   1.262       .  A
C671        C672   1.403       .  A
C671        C676   1.397       .  A
C671        H678   1.083       .  S
C672        C673   1.418       .  A
C673        C674   1.400       .  A
C673        N680   1.435       .  S
C674        C675   1.395       .  A
C674        H679   1.083       .  S
C675        C676   1.408       .  A
C676        N677   1.424       .  S
N677        O681   1.261       .  A
N677        O682   1.262       .  A
N680        O684   1.263       .  A
N680        O683   1.263       .  A
C685        C686   1.412       .  A
C685        C690   1.400       .  A
C685        H692   1.078       .  S
C686        C687   1.426       .  A
C687        C688   1.397       .  A
C687        N694   1.429       .  S
C688        C689   1.393       .  A
C688        H693   1.083       .  S
C689        C690   1.404       .  A
C690        N691   1.427       .  S
N691        O695   1.262       .  A
N691        O696   1.262       .  A
N694        O698   1.263       .  A
N694        O697   1.261       .  A
C699        C700   1.401       .  A
C699        C704   1.397       .  A
C699       C1356   1.477       .  S
C700        C701   1.415       .  A
C700        H705   1.080       .  S
C701        C702   1.409       .  A
C701       C1384   1.509       .  S
C702        C703   1.404       .  A
C702        H706   1.079       .  S
C703        C704   1.403       .  A
C703       C1370   1.488       .  S
C704        H707   1.083       .  S
C708        H709   1.105       .  S
C708        C714   1.542       .  S
C708        C713   1.541       .  S
C708        C712   1.532       .  S
C710        H711   1.109       .  S
C710        C716   1.541       .  S
C710        C715   1.541       .  S
C710        C717   1.533       .  S
C712        C715   1.369       .  D
C712       C1342   1.482       .  S
C713        C716   1.388       .  D
C713       C1300   1.504       .  S
C714        C717   1.371       .  D
C714       C1373   1.478       .  S
C715       C1328   1.484       .  S
C716       C1289   1.490       .  S
C717       C1314   1.491       .  S
C718        H719   1.111       .  S
C718        C724   1.535       .  S
C718        C723   1.533       .  S
C718        C722   1.541       .  S
C720        H721   1.104       .  S
C720        C726   1.541       .  S
C720        C725   1.545       .  S
C720        C727   1.532       .  S
C722        C725   1.386       .  D
C722       C1219   1.485       .  S
C723        C726   1.374       .  D
C723       C1387   1.482       .  S
C724        C727   1.368       .  D
C724       C1247   1.482       .  S
C725       C1233   1.507       .  S
C726       C1275   1.486       .  S
C727       C1261   1.479       .  S
C728        C729   1.410       .  A
C728        C733   1.409       .  A
C728       C1202   1.487       .  S
C729        C730   1.409       .  A
C729       H2130   1.083       .  S
C730        C731   1.400       .  A
C730       C2612   1.501       .  S
C731        C732   1.398       .  A
C731        H735   1.074       .  S
C732        C733   1.408       .  A
C732       C1303   1.497       .  S
C733        H736   1.083       .  S
H734       C2125   1.082   1_455  S
C737        C738   1.407       .  A
C737        C742   1.409       .  A
C737       C1191   1.488       .  S
C738        C739   1.405       .  A
C739        C740   1.403       .  A
C740        C741   1.405       .  A
C740        H744   1.082       .  S
C741        C742   1.412       .  A
C741       C1244   1.502       .  S
C742        H745   1.082       .  S
C746        C747   1.411       .  A
C746        C751   1.404       .  A
C746       C1177   1.482       .  S
C747        C748   1.407       .  A
C747       H2148   1.083       .  S
C748        C749   1.398       .  A
C748       C2626   1.481       .  S
C749        C750   1.398       .  A
C749        H753   1.083       .  S
C750        C751   1.399       .  A
C750       C1286   1.472       .  S
C751        H754   1.084       .  S
H752       C2143   1.083   1_455  S
C755        C756   1.400       .  A
C755        C760   1.402       .  A
C755       C1160   1.473       .  S
C756        C757   1.402       .  A
C757        C758   1.404       .  A
C758        C759   1.405       .  A
C758        H762   1.084       .  S
C759        C760   1.405       .  A
C759       C1258   1.486       .  S
C760        H763   1.084       .  S
C764        C765   1.402       .  A
C764        C769   1.401       .  A
C764       C1146   1.478       .  S
C765        C766   1.406       .  A
C765        H770   1.084       .  S
C766        C767   1.408       .  A
C766       C1317   1.486       .  S
C767        C768   1.404       .  A
C767        H771   1.084       .  S
C768        C769   1.401       .  A
C768       C1272   1.480       .  S
C769        H772   1.084       .  S
Zn773       O777   1.967       .  S
Zn773      O2174   2.021       .  S
Zn773       O782   2.034       .  S
Zn773       O789   2.033       .  S
Zn774      O1475   1.954   1_455  S
Zn774       O779   2.006       .  S
Zn774      O2181   2.012   1_455  S
Zn775       O777   1.953       .  S
Zn775       O780   2.015       .  S
Zn775      O1481   2.022   1_565  S
Zn775       O786   2.012       .  S
Zn776       O777   1.959       .  S
Zn776       O784   2.015       .  S
Zn776       O788   2.017       .  S
O777      Zn1472   1.954   1_565  S
O778      Zn2169   2.021   1_455  S
O778        C790   1.274       .  A
O779        C791   1.271       .  A
O780        C792   1.274       .  A
O781        C790   1.271       .  A
O782        C792   1.275       .  A
O783      Zn1473   2.027   1_455  S
O783        C791   1.274       .  A
O784        C793   1.273       .  A
O785      Zn2170   2.012       .  S
O785        C794   1.272       .  A
O786        C793   1.275       .  A
O787        C794   1.275       .  A
O788        C795   1.274       .  A
O789        C795   1.276       .  A
C790       C1132   1.474       .  S
C791       C1149   1.486       .  S
C792       C1174   1.490       .  S
C793       C1163   1.486       .  S
C794       C1121   1.483       .  S
C795       C1107   1.486       .  S
Zn796      O1498   1.967   1_455  S
Zn796       O805   2.013   1_556  S
Zn796      O2208   2.041   1_455  S
Zn797       O800   1.966       .  S
Zn797       O802   2.014   1_556  S
Zn797      O2200   2.021       .  S
Zn797       O808   2.028       .  S
Zn798       O800   1.973   1_554  S
Zn798      O1501   2.043   1_565  S
Zn798       O806   2.047       .  S
Zn798       O809   2.043       .  S
Zn799       O800   1.966       .  S
Zn799       O807   2.032   1_556  S
Zn799       O810   2.015       .  S
O800      Zn1494   1.967   1_565  S
O801        C813   1.276       .  A
O802        C814   1.274       .  A
O803      Zn1496   2.036   1_455  S
O803        C815   1.278       .  A
O804      Zn2193   2.021   1_455  S
O804        C813   1.274       .  A
O805        C815   1.273       .  A
O806        C814   1.276       .  A
O807        C816   1.276       .  A
O808        C817   1.274       .  A
O809        C816   1.277       .  A
O810        C817   1.274       .  A
O811        C818   1.272       .  A
O812      Zn2192   2.040       .  S
O812        C818   1.276       .  A
C813       C1079   1.485       .  S
C814       C1205   1.495       .  S
C815       C1359   1.493       .  S
C816       C1188   1.491       .  S
C817       C1062   1.478       .  S
C818       C1090   1.482       .  S
C819        C820   1.409       .  A
C819        C824   1.411       .  A
C819       C1118   1.489       .  S
C820        C821   1.403       .  A
C820        H825   1.081       .  S
C821        C822   1.403       .  A
C821       C1034   1.498       .  S
C822        C823   1.400       .  A
C822        H826   1.078       .  S
C823        C824   1.410       .  A
C823       C2444   1.499       .  S
C824       H2223   1.083       .  S
H827       C2220   1.083   1_455  S
C828        C829   1.417       .  A
C828        C833   1.407       .  A
C828       C1093   1.496       .  S
C829        C830   1.412       .  A
C829        H834   1.083       .  S
C830        C831   1.398       .  A
C830       C1006   1.490       .  S
C831        C832   1.397       .  A
C831        H835   1.081       .  S
C832        C833   1.397       .  A
C832       C2416   1.475       .  S
C833       H2232   1.084       .  S
H836       C2229   1.084   1_455  S
C837        H838   1.111       .  S
C837        C843   1.542       .  S
C837        C842   1.533       .  S
C837        C841   1.537       .  S
C839        H840   1.107       .  S
C839        C845   1.537       .  S
C839        C844   1.542       .  S
C839        C846   1.532       .  S
C841        C844   1.382       .  D
C841        C950   1.495       .  S
C842        C845   1.378       .  D
C842        C978   1.491       .  S
C843        C846   1.379       .  D
C843       C1037   1.482       .  S
C844        C964   1.495       .  S
C845        C992   1.487       .  S
C846       C1009   1.494       .  S
C847        H848   1.104       .  S
C847        C853   1.560       .  S
C847        C852   1.562       .  S
C847        C851   1.536       .  S
C849        H850   1.094       .  S
C849        C855   1.529       .  S
C849        C854   1.545       .  S
C849        C856   1.520       .  S
C851        C854   1.382       .  D
C851       C1051   1.508       .  S
C852        C855   1.396       .  D
C852        C911   1.515       .  S
C853        C856   1.373       .  D
C853        C939   1.503       .  S
C854       C1023   1.482       .  S
C855        C894   1.508       .  S
C856        C925   1.505       .  S
C857        C858   1.409       .  A
C857        C862   1.403       .  A
C857       C1135   1.481       .  S
C858        C859   1.408       .  A
C859        C860   1.408       .  A
C860        C861   1.399       .  A
C860        H864   1.077       .  S
C861        C862   1.394       .  A
C861        C936   1.474       .  S
C862        H865   1.084       .  S
C866        C867   1.405       .  A
C866        C871   1.408       .  A
C866       C1104   1.498       .  S
C867        C868   1.406       .  A
C867        H872   1.083       .  S
C868        C869   1.401       .  A
C868        C908   1.494       .  S
C869        C870   1.410       .  A
C869        H873   1.082       .  S
C870        C871   1.411       .  A
C870        C953   1.504       .  S
C871        H874   1.078       .  S
C875        C876   1.407       .  A
C875        C880   1.409       .  A
C875       C1065   1.490       .  S
C876        C877   1.399       .  A
C876        H881   1.084       .  S
C877        C878   1.399       .  A
C877        C897   1.471       .  S
C878        C879   1.399       .  A
C878        H882   1.083       .  S
C879        C880   1.404       .  A
C879        C967   1.474       .  S
C880        H883   1.083       .  S
C884        C885   1.409       .  A
C884        C889   1.403   1_565  A
C884       C1076   1.496       .  S
C885        C886   1.421       .  A
C885        H890   1.081       .  S
C886        C887   1.409       .  A
C886        C922   1.517       .  S
C887        C888   1.400   1_565  A
C887        H891   1.073       .  S
C888        C889   1.401       .  A
C893        C894   1.410       .  A
C893        C898   1.401       .  A
C893        H900   1.084       .  S
C894        C895   1.427       .  A
C895        C896   1.399       .  A
C895        N902   1.430       .  S
C896        C897   1.393       .  A
C896        H901   1.084       .  S
C897        C898   1.404       .  A
C898        N899   1.429       .  S
N899        O903   1.262       .  A
N899        O904   1.262       .  A
N902        O906   1.263       .  A
N902        O905   1.261       .  A
C907        C908   1.398       .  A
C907        C912   1.401       .  A
C907        H914   1.084       .  S
C908        C909   1.416       .  A
C909        C910   1.400       .  A
C909        N916   1.433       .  S
C910        C911   1.409       .  A
C910        H915   1.080       .  S
C911        C912   1.419       .  A
C912        N913   1.422       .  S
N913        O917   1.263       .  A
N913        O918   1.261       .  A
N916        O920   1.263       .  A
N916        O919   1.262       .  A
C921        C922   1.411       .  A
C921        C926   1.406       .  A
C921        H928   1.081       .  S
C922        C923   1.427       .  A
C923        C924   1.397       .  A
C923        N930   1.426       .  S
C924        C925   1.398       .  A
C924        H929   1.080       .  S
C925        C926   1.412       .  A
C926        N927   1.427       .  S
N927        O931   1.262       .  A
N927        O932   1.263       .  A
N930        O934   1.259       .  A
N930        O933   1.262       .  A
C935        C936   1.395       .  A
C935        C940   1.397       .  A
C935        H942   1.085       .  S
C936        C937   1.404       .  A
C937        C938   1.407       .  A
C937        N944   1.433       .  S
C938        C939   1.415       .  A
C938        H943   1.084       .  S
C939        C940   1.412       .  A
C940        N941   1.425       .  S
N941        O945   1.263       .  A
N941        O946   1.261       .  A
N944        O948   1.263       .  A
N944        O947   1.262       .  A
C949        C950   1.406       .  A
C949        C954   1.409       .  A
C949        H956   1.081       .  S
C950        C951   1.415       .  A
C951        C952   1.394       .  A
C951        N958   1.440       .  S
C952        C953   1.407       .  A
C952        H957   1.074       .  S
C953        C954   1.419       .  A
C954        N955   1.437       .  S
N955        O959   1.263       .  A
N955        O960   1.263       .  A
N958        O962   1.259       .  A
N958        O961   1.263       .  A
C963        C964   1.406       .  A
C963        C968   1.405       .  A
C963        H970   1.084       .  S
C964        C965   1.415       .  A
C965        C966   1.398       .  A
C965        N972   1.427       .  S
C966        C967   1.395       .  A
C966        H971   1.084       .  S
C967        C968   1.408       .  A
C968        N969   1.430       .  S
N969        O973   1.262       .  A
N969        O974   1.262       .  A
N972        O976   1.259       .  A
N972        O975   1.263       .  A
C977        C978   1.402       .  A
C977        C982   1.407       .  A
C977        H984   1.082       .  S
C978        C979   1.406       .  A
C979        C980   1.398       .  A
C979        N986   1.428       .  S
C980        C981   1.409       .  A
C980        H985   1.081       .  S
C981        C982   1.420       .  A
C982        N983   1.433       .  S
N983        O987   1.262       .  A
N983        O988   1.263       .  A
N986        O990   1.260       .  A
N986        O989   1.262       .  A
C991        C992   1.398       .  A
C991        C996   1.392       .  A
C991        H998   1.076       .  S
C992        C993   1.410       .  A
C993        C994   1.405       .  A
C993       N1000   1.429       .  S
C994        C995   1.406       .  A
C994        H999   1.084       .  S
C995        C996   1.413       .  A
C996        N997   1.432       .  S
N997       O1001   1.263       .  A
N997       O1002   1.262       .  A
N1000      O1004   1.262       .  A
N1000      O1003   1.262       .  A
C1005      C1006   1.405       .  A
C1005      C1010   1.404       .  A
C1005      H1012   1.084       .  S
C1006      C1007   1.413       .  A
C1007      C1008   1.406       .  A
C1007      N1014   1.434       .  S
C1008      C1009   1.405       .  A
C1008      H1013   1.081       .  S
C1009      C1010   1.412       .  A
C1010      N1011   1.430       .  S
N1011      O1015   1.262       .  A
N1011      O1016   1.262       .  A
N1014      O1018   1.262       .  A
N1014      O1017   1.262       .  A
C1019      C1020   1.402       .  A
C1019      C1024   1.401       .  A
C1019      H1026   1.084       .  S
C1020      C1021   1.408       .  A
C1020      C2228   1.474   1_455  S
C1021      C1022   1.396       .  A
C1021      N1028   1.432       .  S
C1022      C1023   1.398       .  A
C1022      H1027   1.076       .  S
C1023      C1024   1.414       .  A
C1024      N1025   1.433       .  S
N1025      O1029   1.260       .  A
N1025      O1030   1.262       .  A
N1028      O2428   1.262       .  A
N1028      O1031   1.262       .  A
O1032      N2424   1.262       .  A
C1033      C1034   1.407       .  A
C1033      C1038   1.396       .  A
C1033      H1040   1.083       .  S
C1034      C1035   1.418       .  A
C1035      C1036   1.401       .  A
C1035      N1042   1.426       .  S
C1036      C1037   1.396       .  A
C1036      H1041   1.076       .  S
C1037      C1038   1.405       .  A
C1038      N1039   1.425       .  S
N1039      O1043   1.262       .  A
N1039      O1044   1.260       .  A
N1042      O1046   1.262       .  A
N1042      O1045   1.261       .  A
C1047      C1048   1.403       .  A
C1047      C1052   1.406       .  A
C1047      H1054   1.083       .  S
C1048      C1049   1.420       .  A
C1048      C2219   1.499   1_455  S
C1049      C1050   1.399       .  A
C1049      N2452   1.435   1_455  S
C1050      C1051   1.403       .  A
C1050      H1055   1.080       .  S
C1051      C1052   1.417       .  A
C1052      N1053   1.425       .  S
N1053      O1057   1.261       .  A
N1053      O1058   1.262       .  A
N1056      C2445   1.435       .  S
N1056      O1060   1.262       .  A
N1056      O1059   1.263       .  A
C1061      C1062   1.402       .  A
C1061      C1066   1.406       .  A
C1061      H1068   1.084       .  S
C1062      C1063   1.409       .  A
C1063      C1064   1.399       .  A
C1063      N1070   1.431       .  S
C1064      C1065   1.406       .  A
C1064      H1069   1.084       .  S
C1065      C1066   1.418       .  A
C1066      N1067   1.436       .  S
N1067      O1071   1.262       .  A
N1067      O1072   1.263       .  A
N1070      O1074   1.262       .  A
N1070      O1073   1.262       .  A
C1075      C1076   1.406       .  A
C1075      C1080   1.405       .  A
C1075      H1082   1.084       .  S
C1076      C1077   1.417       .  A
C1077      C1078   1.404       .  A
C1077      N1084   1.433   1_565  S
C1078      C1079   1.402       .  A
C1078      H1083   1.084   1_565  S
C1079      C1080   1.414       .  A
C1080      N1081   1.433       .  S
N1081      O1085   1.262       .  A
N1081      O1086   1.262       .  A
N1084      O1088   1.263       .  A
N1084      O1087   1.262   1_545  A
C1089      C1090   1.405       .  A
C1089      C1094   1.408       .  A
C1089      H1096   1.084       .  S
C1090      C1091   1.410       .  A
C1091      C1092   1.403       .  A
C1091      N2494   1.435       .  S
C1092      C1093   1.408       .  A
C1092      H2493   1.084       .  S
C1093      C1094   1.416       .  A
C1094      N1095   1.434       .  S
N1095      O1099   1.262       .  A
N1095      O1100   1.262       .  A
H1097      C2488   1.084       .  S
N1098      C2487   1.435   1_455  S
N1098      O1102   1.263   1_455  A
N1098      O1101   1.262       .  A
C1103      C1104   1.408       .  A
C1103      C1108   1.405       .  A
C1103      H1110   1.083       .  S
C1104      C1105   1.420       .  A
C1105      C1106   1.403       .  A
C1105      N1112   1.436       .  S
C1106      C1107   1.404       .  A
C1106      H1111   1.084       .  S
C1107      C1108   1.414       .  A
C1108      N1109   1.434       .  S
N1109      O1113   1.262       .  A
N1109      O1114   1.262       .  A
N1112      O1116   1.263       .  A
N1112      O1115   1.263       .  A
C1117      C1118   1.404       .  A
C1117      C1122   1.406       .  A
C1117      H2520   1.084       .  S
C1118      C1119   1.416       .  A
C1119      C1120   1.403       .  A
C1119      N1126   1.437       .  S
C1120      C1121   1.402       .  A
C1120      H1125   1.084       .  S
C1121      C1122   1.416       .  A
C1122      N2519   1.434       .  S
N1123      C2518   1.434   1_455  S
N1123      O1127   1.262       .  A
N1123      O1128   1.262       .  A
H1124      C2513   1.084   1_455  S
N1126      O1130   1.263       .  A
N1126      O1129   1.263       .  A
C1131      C1132   1.403       .  A
C1131      C1136   1.398       .  A
C1131      H1138   1.084   1_565  S
C1132      C1133   1.409       .  A
C1133      C1134   1.400       .  A
C1133      N1140   1.432       .  S
C1134      C1135   1.406       .  A
C1134      H1139   1.084       .  S
C1135      C1136   1.413       .  A
C1136      N1137   1.436   1_565  S
N1137      O1141   1.263       .  A
N1137      O1142   1.263       .  A
N1140      O1144   1.262       .  A
N1140      O1143   1.262       .  A
C1145      C1146   1.400       .  A
C1145      C1150   1.403       .  A
C1145      H1152   1.084       .  S
C1146      C1147   1.409       .  A
C1147      C1148   1.399       .  A
C1147      N1154   1.430       .  S
C1148      C1149   1.405       .  A
C1148      H1153   1.084       .  S
C1149      C1150   1.417       .  A
C1150      N1151   1.431       .  S
N1151      O1155   1.262       .  A
N1151      O1156   1.262       .  A
N1154      O1158   1.262       .  A
N1154      O1157   1.262       .  A
C1159      C1160   1.400       .  A
C1159      C1164   1.402       .  A
C1159      H1166   1.084       .  S
C1160      C1161   1.407       .  A
C1161      C1162   1.398       .  A
C1161      N1168   1.432       .  S
C1162      C1163   1.407       .  A
C1162      H1167   1.084       .  S
C1163      C1164   1.418       .  A
C1164      N1165   1.430       .  S
N1165      O1169   1.262   1_565  A
N1165      O1170   1.262       .  A
N1168      O1172   1.262       .  A
C1173      C1174   1.409       .  A
C1173      C1178   1.405       .  A
C1173      H1180   1.084       .  S
C1174      C1175   1.414       .  A
C1175      C1176   1.402       .  A
C1175      N1182   1.429       .  S
C1176      C1177   1.404       .  A
C1176      H1181   1.084       .  S
C1177      C1178   1.411       .  A
C1178      N2575   1.436       .  S
N1179      C2574   1.436       .  S
N1179      O1183   1.263       .  A
N1179      O1184   1.262   1_655  A
N1182      O1186   1.262       .  A
N1182      O1185   1.262       .  A
C1187      C1188   1.407       .  A
C1187      C1192   1.406       .  A
C1187      H1194   1.084       .  S
C1188      C1189   1.413       .  A
C1189      C1190   1.404       .  A
C1189      N1196   1.428       .  S
C1190      C1191   1.403       .  A
C1190      H1195   1.084       .  S
C1191      C1192   1.411       .  A
C1192      N1193   1.431       .  S
N1193      O1197   1.262   1_565  A
N1193      O1198   1.262       .  A
N1196      O1200   1.261       .  A
N1196      O1199   1.262       .  A
C1201      C1202   1.403       .  A
C1201      C1206   1.405       .  A
C1201      H1208   1.084       .  S
C1202      C1203   1.410       .  A
C1203      C1204   1.403       .  A
C1203      N1210   1.432       .  S
C1204      C1205   1.409       .  A
C1204      H1209   1.084       .  S
C1205      C1206   1.416       .  A
C1206      N1207   1.428       .  S
N1207      O1211   1.261       .  A
N1207      O1212   1.262       .  A
N1210      O2610   1.262       .  A
N1210      O1213   1.262       .  A
O1214      N2606   1.262   1_455  A
C1215      C1216   1.407       .  A
C1215      C1220   1.400       .  A
C1215      H1222   1.082       .  S
C1216      C1217   1.422       .  A
C1216      C2126   1.501   1_455  S
C1217      C1218   1.404       .  A
C1217      N2620   1.440       .  S
C1218      C1219   1.397       .  A
C1218      H1223   1.082       .  S
C1219      C1220   1.409       .  A
C1220      N1221   1.426       .  S
N1221      O1225   1.262       .  A
N1221      O1226   1.262       .  A
N1224      C2613   1.440       .  S
N1224      O1228   1.263       .  A
N1224      O1227   1.263       .  A
C1229      C1230   1.399       .  A
C1229      C1234   1.404       .  A
C1229      H1236   1.084       .  S
C1230      C1231   1.406       .  A
C1230      C2144   1.480   1_455  S
C1231      C1232   1.404       .  A
C1231      N2634   1.433       .  S
C1232      C1233   1.410       .  A
C1232      H1237   1.075       .  S
C1233      C1234   1.421       .  A
C1234      N1235   1.430       .  S
N1235      O1239   1.262       .  A
N1235      O1240   1.262       .  A
N1238      C2627   1.434       .  S
N1238      O1242   1.263       .  A
N1238      O1241   1.262       .  A
C1243      C1244   1.409       .  A
C1243      C1248   1.404       .  A
C1243      H1250   1.082       .  S
C1244      C1245   1.422       .  A
C1245      C1246   1.396       .  A
C1245      N1252   1.432       .  S
C1246      C1247   1.391       .  A
C1246      H1251   1.081       .  S
C1247      C1248   1.408       .  A
C1248      N1249   1.426       .  S
N1249      O1253   1.261       .  A
N1249      O1254   1.262       .  A
N1252      O1256   1.263       .  A
N1252      O1255   1.262       .  A
C1257      C1258   1.405       .  A
C1257      C1262   1.399       .  A
C1257      H1264   1.084       .  S
C1258      C1259   1.417       .  A
C1259      C1260   1.402       .  A
C1259      N1266   1.435       .  S
C1260      C1261   1.399       .  A
C1260      H1265   1.082       .  S
C1261      C1262   1.406       .  A
C1262      N1263   1.429       .  S
N1263      O1267   1.261       .  A
N1263      O1268   1.262       .  A
N1266      O1270   1.262       .  A
N1266      O1269   1.262       .  A
C1271      C1272   1.401       .  A
C1271      C1276   1.401       .  A
C1271      H1278   1.084       .  S
C1272      C1273   1.410       .  A
C1273      C1274   1.404       .  A
C1273      N1280   1.433       .  S
C1274      C1275   1.404       .  A
C1274      H1279   1.083       .  S
C1275      C1276   1.416       .  A
C1276      N1277   1.438       .  S
N1277      O1281   1.263       .  A
N1277      O1282   1.261       .  A
N1280      O1284   1.262       .  A
N1280      O1283   1.262       .  A
C1285      C1286   1.400       .  A
C1285      C1290   1.400       .  A
C1285      H1292   1.084       .  S
C1286      C1287   1.406       .  A
C1287      C1288   1.397       .  A
C1287      N1294   1.429       .  S
C1288      C1289   1.406       .  A
C1288      H1293   1.082       .  S
C1289      C1290   1.413       .  A
C1290      N1291   1.428       .  S
N1291      O1295   1.262       .  A
N1291      O1296   1.262       .  A
N1294      O1298   1.262       .  A
N1294      O1297   1.262       .  A
C1299      C1300   1.403       .  A
C1299      C1304   1.395       .  A
C1299      H1306   1.082       .  S
C1300      C1301   1.418       .  A
C1301      C1302   1.406       .  A
C1301      N1308   1.429       .  S
C1302      C1303   1.404       .  A
C1302      H1307   1.083       .  S
C1303      C1304   1.421       .  A
C1304      N1305   1.439       .  S
N1305      O1309   1.263       .  A
N1305      O1310   1.263       .  A
N1308      O1312   1.262       .  A
N1308      O1311   1.262       .  A
C1313      C1314   1.400       .  A
C1313      C1318   1.403       .  A
C1313      H1320   1.079       .  S
C1314      C1315   1.410       .  A
C1315      C1316   1.400       .  A
C1315      N1322   1.425       .  S
C1316      C1317   1.401       .  A
C1316      H1321   1.084       .  S
C1317      C1318   1.416       .  A
C1318      N1319   1.434       .  S
N1319      O1323   1.262       .  A
N1319      O1324   1.262       .  A
N1322      O1326   1.262       .  A
N1322      O1325   1.262       .  A
C1327      C1328   1.400       .  A
C1327      C1332   1.403       .  A
C1327      H1334   1.081       .  S
C1328      C1329   1.406       .  A
C1329      C1330   1.399       .  A
C1329      N1336   1.425       .  S
C1330      C1331   1.403       .  A
C1330      H1335   1.084       .  S
C1331      C1332   1.417       .  A
C1332      N1333   1.434       .  S
N1333      O1337   1.262       .  A
N1333      O1338   1.262       .  A
N1336      O1340   1.261       .  A
N1336      O1339   1.262       .  A
C1341      C1342   1.391       .  A
C1341      C1346   1.396       .  A
C1341      H1348   1.076       .  S
C1342      C1343   1.414       .  A
C1343      C1344   1.407       .  A
C1343      N1350   1.434       .  S
C1344      C1345   1.405       .  A
C1344      H1349   1.083       .  S
C1345      C1346   1.415       .  A
N1347      O1351   1.263   1_545  A
N1347      O1352   1.262   1_545  A
N1350      O1354   1.260       .  A
N1350      O1353   1.262       .  A
C1355      C1356   1.398       .  A
C1355      C1360   1.403       .  A
C1355      H1362   1.084       .  S
C1356      C1357   1.407       .  A
C1357      C1358   1.399       .  A
C1357      N1364   1.429       .  S
C1358      C1359   1.407       .  A
C1358      H1363   1.083       .  S
C1359      C1360   1.421       .  A
C1360      N1361   1.429       .  S
N1361      O1365   1.262       .  A
N1361      O1366   1.262       .  A
N1364      O1368   1.262       .  A
N1364      O1367   1.262       .  A
C1369      C1370   1.403       .  A
C1369      C1374   1.397       .  A
C1369      H1376   1.083       .  S
C1370      C1371   1.418       .  A
C1371      C1372   1.399       .  A
C1371      N1378   1.435       .  S
C1372      C1373   1.395       .  A
C1372      H1377   1.082       .  S
C1373      C1374   1.408       .  A
C1374      N1375   1.424       .  S
N1375      O1379   1.261       .  A
N1375      O1380   1.262       .  A
N1378      O1382   1.263       .  A
N1378      O1381   1.263       .  A
C1383      C1384   1.412       .  A
C1383      C1388   1.399       .  A
C1383      H1390   1.079       .  S
C1384      C1385   1.425       .  A
C1385      C1386   1.397       .  A
C1385      N1392   1.430       .  S
C1386      C1387   1.394       .  A
C1386      H1391   1.083       .  S
C1387      C1388   1.404       .  A
C1388      N1389   1.427       .  S
N1389      O1393   1.262       .  A
N1389      O1394   1.262       .  A
N1392      O1396   1.263       .  A
N1392      O1395   1.261       .  A
C1397      C1398   1.402       .  A
C1397      C1402   1.397       .  A
C1397      C2054   1.478       .  S
C1398      C1399   1.415       .  A
C1398      H1403   1.079       .  S
C1399      C1400   1.409       .  A
C1399      C2082   1.512       .  S
C1400      C1401   1.405       .  A
C1400      H1404   1.079       .  S
C1401      C1402   1.404       .  A
C1401      C2068   1.489       .  S
C1402      H1405   1.083       .  S
C1406      H1407   1.105       .  S
C1406      C1412   1.542       .  S
C1406      C1411   1.541       .  S
C1406      C1410   1.533       .  S
C1408      H1409   1.109       .  S
C1408      C1414   1.540       .  S
C1408      C1413   1.540       .  S
C1408      C1415   1.533       .  S
C1410      C1413   1.369       .  D
C1410      C2040   1.483       .  S
C1411      C1414   1.387       .  D
C1411      C1998   1.504       .  S
C1412      C1415   1.372       .  D
C1412      C2071   1.479       .  S
C1413      C2026   1.482       .  S
C1414      C1987   1.490       .  S
C1415      C2012   1.491       .  S
C1416      H1417   1.111       .  S
C1416      C1422   1.535       .  S
C1416      C1421   1.533       .  S
C1416      C1420   1.542       .  S
C1418      H1419   1.104       .  S
C1418      C1424   1.540       .  S
C1418      C1423   1.545       .  S
C1418      C1425   1.531       .  S
C1420      C1423   1.387       .  D
C1420      C1917   1.487       .  S
C1421      C1424   1.374       .  D
C1421      C2085   1.484       .  S
C1422      C1425   1.368       .  D
C1422      C1945   1.480       .  S
C1423      C1931   1.508       .  S
C1424      C1973   1.484       .  S
C1425      C1959   1.481       .  S
C1426      C1427   1.410       .  A
C1426      C1431   1.408       .  A
C1426      C1900   1.486       .  S
C1427      C1428   1.410       .  A
C1428      C1429   1.401       .  A
C1429      C1430   1.398       .  A
C1429      H1433   1.075       .  S
C1430      C1431   1.408       .  A
C1430      C2001   1.499       .  S
C1431      H1434   1.083       .  S
C1435      C1436   1.405       .  A
C1435      C1440   1.408       .  A
C1435      C1889   1.483       .  S
C1436      C1437   1.404       .  A
C1436      H2139   1.083       .  S
C1437      C1438   1.402       .  A
C1437      C2741   1.488       .  S
C1438      C1439   1.405       .  A
C1438      H1442   1.082       .  S
C1439      C1440   1.412       .  A
C1439      C1942   1.501       .  S
C1440      H1443   1.082       .  S
H1441      C2134   1.083   1_545  S
C1444      C1445   1.410       .  A
C1444      C1449   1.404       .  A
C1444      C1875   1.481       .  S
C1445      C1446   1.406       .  A
C1446      C1447   1.399       .  A
C1447      C1448   1.399       .  A
C1447      H1451   1.083       .  S
C1448      C1449   1.400       .  A
C1448      C1984   1.474       .  S
C1449      H1452   1.084       .  S
C1453      C1454   1.400       .  A
C1453      C1458   1.401       .  A
C1453      C1858   1.472       .  S
C1454      C1455   1.403       .  A
C1454      H2157   1.084       .  S
C1455      C1456   1.406       .  A
C1455      C2727   1.487       .  S
C1456      C1457   1.406       .  A
C1456      H1460   1.084       .  S
C1457      C1458   1.405       .  A
C1457      C1956   1.487       .  S
C1458      H1461   1.084       .  S
H1459      C2152   1.084   1_545  S
C1462      C1463   1.403       .  A
C1462      C1467   1.401       .  A
C1462      C1844   1.479       .  S
C1463      C1464   1.406       .  A
C1463      H1468   1.084       .  S
C1464      C1465   1.407       .  A
C1464      C2015   1.484       .  S
C1465      C1466   1.404       .  A
C1465      H1469   1.084       .  S
C1466      C1467   1.401       .  A
C1466      C1970   1.480       .  S
C1467      H1470   1.084       .  S
Zn1471     O1475   1.967       .  S
Zn1471     O1480   2.031       .  S
Zn1471     O1487   2.035       .  S
Zn1472     O1477   2.005       .  S
Zn1472     O2177   1.989   1_545  S
Zn1473     O1475   1.955       .  S
Zn1473     O1478   2.021       .  S
Zn1473     O1484   2.014       .  S
Zn1474     O1475   1.961       .  S
Zn1474     O1482   2.014       .  S
Zn1474     O2183   2.029       .  S
Zn1474     O1486   2.022       .  S
O1476      C1488   1.274       .  A
O1477      C1489   1.271       .  A
O1478      C1490   1.274       .  A
O1479     Zn2170   1.989       .  S
O1479      C1488   1.271       .  A
O1480      C1490   1.275       .  A
O1481      C1489   1.274       .  A
O1482      C1491   1.273       .  A
O1483      C1492   1.272       .  A
O1484      C1491   1.276       .  A
O1485     Zn2172   2.026   1_545  S
O1485      C1492   1.275       .  A
O1486      C1493   1.274       .  A
O1487      C1493   1.276       .  A
C1488      C1830   1.473       .  S
C1489      C1847   1.483       .  S
C1490      C1872   1.491       .  S
C1491      C1861   1.489       .  S
C1492      C1819   1.484       .  S
C1493      C1805   1.488       .  S
Zn1494     O2197   2.036   1_545  S
Zn1494     O1503   2.014   1_556  S
Zn1495     O1498   1.966       .  S
Zn1495     O1500   2.022   1_556  S
Zn1495     O1506   2.024       .  S
Zn1496     O1498   1.969   1_554  S
Zn1496     O1504   2.046       .  S
Zn1496     O1507   2.039       .  S
Zn1497     O1498   1.965       .  S
Zn1497     O1505   2.031   1_556  S
Zn1497     O1508   2.008       .  S
Zn1497     O2207   2.019       .  S
O1499     Zn2192   2.037       .  S
O1499      C1511   1.276       .  A
O1500      C1512   1.274       .  A
O1501      C1513   1.279       .  A
O1502      C1511   1.273       .  A
O1503      C1513   1.273       .  A
O1504      C1512   1.276       .  A
O1505      C1514   1.276       .  A
O1506      C1515   1.274       .  A
O1507      C1514   1.277       .  A
O1508      C1515   1.273       .  A
O1509     Zn2195   2.016   1_545  S
O1509      C1516   1.272       .  A
O1510      C1516   1.276       .  A
C1511      C1777   1.486       .  S
C1512      C1903   1.499       .  S
C1513      C2057   1.496       .  S
C1514      C1886   1.494       .  S
C1515      C1760   1.476       .  S
C1516      C1788   1.481       .  S
C1517      C1518   1.410       .  A
C1517      C1522   1.411       .  A
C1517      C1816   1.489       .  S
C1518      C1519   1.403       .  A
C1518      H1523   1.081       .  S
C1519      C1520   1.403       .  A
C1519      C1732   1.498       .  S
C1520      C1521   1.400       .  A
C1520      H1524   1.078       .  S
C1521      C1522   1.409       .  A
C1526      C1527   1.417       .  A
C1526      C1531   1.406       .  A
C1526      C1791   1.495       .  S
C1527      C1528   1.413       .  A
C1527      H1532   1.083       .  S
C1528      C1529   1.398       .  A
C1528      C1704   1.491       .  S
C1529      C1530   1.396       .  A
C1529      H1533   1.081       .  S
C1530      C1531   1.396       .  A
C1535      H1536   1.111       .  S
C1535      C1541   1.541       .  S
C1535      C1540   1.533       .  S
C1535      C1539   1.537       .  S
C1537      H1538   1.107       .  S
C1537      C1543   1.537       .  S
C1537      C1542   1.544       .  S
C1537      C1544   1.533       .  S
C1539      C1542   1.382       .  D
C1539      C1648   1.498       .  S
C1540      C1543   1.378       .  D
C1540      C1676   1.489       .  S
C1541      C1544   1.379       .  D
C1541      C1735   1.482       .  S
C1542      C1662   1.494       .  S
C1543      C1690   1.489       .  S
C1544      C1707   1.495       .  S
C1545      H1546   1.105       .  S
C1545      C1551   1.561       .  S
C1545      C1550   1.563       .  S
C1545      C1549   1.537       .  S
C1547      H1548   1.096       .  S
C1547      C1553   1.529       .  S
C1547      C1552   1.545       .  S
C1547      C1554   1.519       .  S
C1549      C1552   1.382       .  D
C1549      C1749   1.507       .  S
C1550      C1553   1.396       .  D
C1550      C1609   1.518       .  S
C1551      C1554   1.373       .  D
C1551      C1637   1.504       .  S
C1552      C1721   1.483       .  S
C1553      C1592   1.508       .  S
C1554      C1623   1.503       .  S
C1555      C1556   1.409       .  A
C1555      C1560   1.402       .  A
C1555      C1833   1.480       .  S
C1556      C1557   1.407       .  A
C1556      H2259   1.082       .  S
C1557      C1558   1.408       .  A
C1557      C2377   1.503       .  S
C1558      C1559   1.400       .  A
C1558      H1562   1.076       .  S
C1559      C1560   1.394       .  A
C1559      C1634   1.474       .  S
C1560      H1563   1.084       .  S
H1561      C2254   1.082   1_545  S
C1564      C1565   1.406       .  A
C1564      C1569   1.409       .  A
C1564      C1802   1.499       .  S
C1565      C1566   1.407       .  A
C1565      H1570   1.082       .  S
C1566      C1567   1.401       .  A
C1566      C1606   1.497       .  S
C1567      C1568   1.410       .  A
C1567      H1571   1.082       .  S
C1568      C1569   1.410       .  A
C1568      C1651   1.505       .  S
C1569      H1572   1.078       .  S
C1573      C1574   1.407       .  A
C1573      C1578   1.408       .  A
C1573      C1763   1.490       .  S
C1574      C1575   1.399       .  A
C1574      H1579   1.084       .  S
C1575      C1576   1.400       .  A
C1575      C1595   1.471       .  S
C1576      C1577   1.398       .  A
C1576      H1580   1.083       .  S
C1577      C1578   1.402       .  A
C1577      C1665   1.472       .  S
C1578      H1581   1.083       .  S
C1582      C1583   1.411       .  A
C1582      C1587   1.403       .  A
C1582      C1774   1.497       .  S
C1583      C1584   1.421       .  A
C1583      H1588   1.081       .  S
C1584      C1585   1.408       .  A
C1584      C1620   1.517       .  S
C1585      C1586   1.399       .  A
C1585      H1589   1.073       .  S
C1586      C1587   1.401       .  A
C1586      C2391   1.483       .  S
C1587      H2288   1.083       .  S
H1590      C2285   1.083       .  S
C1591      C1592   1.410       .  A
C1591      C1596   1.401       .  A
C1591      H1598   1.084       .  S
C1592      C1593   1.427       .  A
C1593      C1594   1.399       .  A
C1593      N1600   1.429       .  S
C1594      C1595   1.393       .  A
C1594      H1599   1.084       .  S
C1595      C1596   1.405       .  A
C1596      N1597   1.430       .  S
N1597      O1601   1.262       .  A
N1597      O1602   1.262       .  A
N1600      O1604   1.263       .  A
N1600      O1603   1.261       .  A
C1605      C1606   1.399       .  A
C1605      C1610   1.403       .  A
C1605      H1612   1.084       .  S
C1606      C1607   1.416       .  A
C1607      C1608   1.400       .  A
C1607      N1614   1.433       .  S
C1608      C1609   1.409       .  A
C1608      H1613   1.079       .  S
C1609      C1610   1.419       .  A
C1610      N1611   1.421       .  S
N1611      O1615   1.263       .  A
N1611      O1616   1.261       .  A
N1614      O1618   1.263       .  A
N1614      O1617   1.262       .  A
C1619      C1620   1.411       .  A
C1619      C1624   1.405       .  A
C1619      H1626   1.081       .  S
C1620      C1621   1.427       .  A
C1621      C1622   1.396       .  A
C1621      N1628   1.426       .  S
C1622      C1623   1.397       .  A
C1622      H1627   1.081       .  S
C1623      C1624   1.411       .  A
C1624      N1625   1.426       .  S
N1625      O1629   1.262       .  A
N1625      O1630   1.263       .  A
N1628      O1632   1.259       .  A
N1628      O1631   1.262       .  A
C1633      C1634   1.395       .  A
C1633      C1638   1.397       .  A
C1633      H1640   1.085       .  S
C1634      C1635   1.405       .  A
C1635      C1636   1.408       .  A
C1635      N1642   1.433       .  S
C1636      C1637   1.416       .  A
C1636      H1641   1.084       .  S
C1637      C1638   1.411       .  A
C1638      N1639   1.423       .  S
N1639      O1643   1.263       .  A
N1639      O1644   1.261       .  A
N1642      O1646   1.263       .  A
N1642      O1645   1.262       .  A
C1647      C1648   1.406       .  A
C1647      C1652   1.410       .  A
C1647      H1654   1.081       .  S
C1648      C1649   1.416       .  A
C1649      C1650   1.394       .  A
C1649      N1656   1.439       .  S
C1650      C1651   1.406       .  A
C1650      H1655   1.074       .  S
C1651      C1652   1.419       .  A
C1652      N1653   1.437       .  S
N1653      O1657   1.263       .  A
N1653      O1658   1.263       .  A
N1656      O1660   1.259       .  A
N1656      O1659   1.263       .  A
C1661      C1662   1.406       .  A
C1661      C1666   1.404       .  A
C1661      H1668   1.084       .  S
C1662      C1663   1.415       .  A
C1663      C1664   1.397       .  A
C1663      N1670   1.427       .  S
C1664      C1665   1.395       .  A
C1664      H1669   1.084       .  S
C1665      C1666   1.407       .  A
C1666      N1667   1.429       .  S
N1667      O1671   1.262       .  A
N1667      O1672   1.262       .  A
N1670      O1674   1.259       .  A
N1670      O1673   1.263       .  A
C1675      C1676   1.402       .  A
C1675      C1680   1.407       .  A
C1675      H1682   1.082       .  S
C1676      C1677   1.405       .  A
C1677      C1678   1.397       .  A
C1677      N1684   1.428       .  S
C1678      C1679   1.409       .  A
C1678      H1683   1.081       .  S
C1679      C1680   1.420       .  A
C1679      C2255   1.503   1_545  S
C1680      N1681   1.434       .  S
N1681      O1685   1.262       .  A
N1681      O1686   1.263       .  A
N1684      O1688   1.260       .  A
N1684      O1687   1.261       .  A
C1689      C1690   1.398       .  A
C1689      C1694   1.393       .  A
C1689      H1696   1.076       .  S
C1690      C1691   1.411       .  A
C1691      C1692   1.406       .  A
C1691      N1698   1.430       .  S
C1692      C1693   1.407       .  A
C1692      H1697   1.084       .  S
C1693      C1694   1.412       .  A
C1693      C2284   1.485       .  S
C1694      N1695   1.432       .  S
N1695      O1699   1.262       .  A
N1695      O1700   1.262       .  A
N1698      O1702   1.262       .  A
N1698      O1701   1.262       .  A
C1703      C1704   1.406       .  A
C1703      C1708   1.404       .  A
C1703      H1710   1.084       .  S
C1704      C1705   1.413       .  A
C1705      C1706   1.406       .  A
C1705      N1712   1.434       .  S
C1706      C1707   1.406       .  A
C1706      H1711   1.081       .  S
C1707      C1708   1.411       .  A
C1708      N1709   1.429       .  S
N1709      O1713   1.262       .  A
N1709      O1714   1.261       .  A
N1712      O1716   1.262       .  A
N1712      O1715   1.262       .  A
C1717      C1718   1.401       .  A
C1717      C1722   1.401       .  A
C1717      H1724   1.086       .  S
C1718      C1719   1.407       .  A
C1719      C1720   1.394       .  A
C1719      N1726   1.432       .  S
C1720      C1721   1.397       .  A
C1720      H1725   1.086       .  S
C1721      C1722   1.415       .  A
C1722      N1723   1.433       .  S
N1723      O1727   1.260       .  A
N1723      O1728   1.262       .  A
N1726      O1729   1.262       .  A
C1731      C1732   1.407       .  A
C1731      C1736   1.396       .  A
C1731      H1738   1.083       .  S
C1732      C1733   1.418       .  A
C1733      C1734   1.401       .  A
C1733      N1740   1.426       .  S
C1734      C1735   1.396       .  A
C1734      H1739   1.076       .  S
C1735      C1736   1.405       .  A
C1736      N1737   1.426       .  S
N1737      O1741   1.263       .  A
N1737      O1742   1.260       .  A
N1740      O1744   1.262       .  A
N1740      O1743   1.261       .  A
C1745      C1746   1.403       .  A
C1745      C1750   1.406       .  A
C1745      H1752   1.083       .  S
C1746      C1747   1.419       .  A
C1747      C1748   1.398       .  A
C1748      C1749   1.403       .  A
C1748      H1753   1.080       .  S
C1749      C1750   1.417       .  A
C1750      N1751   1.425       .  S
N1751      O1755   1.261       .  A
N1751      O1756   1.262       .  A
N1754      O1758   1.262       .  A
N1754      O1757   1.263       .  A
C1759      C1760   1.401       .  A
C1759      C1764   1.404       .  A
C1759      H1766   1.084       .  S
C1760      C1761   1.409       .  A
C1761      C1762   1.398       .  A
C1761      N1768   1.431       .  S
C1762      C1763   1.407       .  A
C1762      H1767   1.084       .  S
C1763      C1764   1.418       .  A
C1764      N1765   1.435       .  S
N1765      O1769   1.262       .  A
N1765      O1770   1.263       .  A
N1768      O1772   1.262       .  A
N1768      O1771   1.262       .  A
C1773      C1774   1.406       .  A
C1773      C1778   1.406       .  A
C1773      H1780   1.084       .  S
C1774      C1775   1.417       .  A
C1775      C1776   1.404       .  A
C1775      N1782   1.432       .  S
C1776      C1777   1.401       .  A
C1776      H1781   1.084       .  S
C1777      C1778   1.415       .  A
C1778      N1779   1.434       .  S
N1779      O1783   1.262       .  A
N1779      O1784   1.263       .  A
N1782      O1786   1.263       .  A
N1782      O1785   1.261       .  A
C1787      C1788   1.405       .  A
C1787      C1792   1.408       .  A
C1787      H1794   1.084       .  S
C1788      C1789   1.409       .  A
C1789      C1790   1.402       .  A
C1790      C1791   1.409       .  A
C1791      C1792   1.416       .  A
C1792      N1793   1.434       .  S
N1793      O1797   1.262       .  A
N1793      O1798   1.262       .  A
N1796      O1800   1.263       .  A
N1796      O1799   1.262       .  A
C1801      C1802   1.408       .  A
C1801      C1806   1.405       .  A
C1801      H1808   1.083       .  S
C1802      C1803   1.420       .  A
C1803      C1804   1.404       .  A
C1803      N1810   1.436       .  S
C1804      C1805   1.404       .  A
C1804      H1809   1.084       .  S
C1805      C1806   1.414       .  A
C1806      N1807   1.434       .  S
N1807      O1811   1.262       .  A
N1807      O1812   1.262       .  A
N1810      O1814   1.263       .  A
N1810      O1813   1.263       .  A
C1815      C1816   1.404       .  A
C1815      C1820   1.405       .  A
C1816      C1817   1.416       .  A
C1817      C1818   1.402       .  A
C1817      N1824   1.437       .  S
C1818      C1819   1.402       .  A
C1818      H1823   1.084       .  S
C1819      C1820   1.415       .  A
N1821      O1825   1.262       .  A
N1821      O1826   1.262       .  A
N1824      O1828   1.263       .  A
N1824      O1827   1.263       .  A
C1829      C1830   1.403       .  A
C1829      C1834   1.398       .  A
C1829      H1836   1.084       .  S
C1830      C1831   1.410       .  A
C1831      C1832   1.400       .  A
C1831      N1838   1.433       .  S
C1832      C1833   1.406       .  A
C1832      H1837   1.084       .  S
C1833      C1834   1.412       .  A
C1834      N1835   1.436       .  S
N1835      O1839   1.263       .  A
N1835      O1840   1.263       .  A
N1838      O1842   1.262       .  A
N1838      O1841   1.262       .  A
C1843      C1844   1.401       .  A
C1843      C1848   1.402       .  A
C1843      H1850   1.084       .  S
C1844      C1845   1.410       .  A
C1845      C1846   1.399       .  A
C1845      N1852   1.431       .  S
C1846      C1847   1.405       .  A
C1846      H1851   1.084       .  S
C1847      C1848   1.416       .  A
C1848      N1849   1.431       .  S
N1849      O1853   1.262       .  A
N1849      O1854   1.262       .  A
N1852      O1856   1.262       .  A
N1852      O1855   1.262       .  A
C1857      C1858   1.399       .  A
C1857      C1862   1.403       .  A
C1857      H1864   1.084       .  S
C1858      C1859   1.405       .  A
C1859      C1860   1.396       .  A
C1859      N1866   1.429       .  S
C1860      C1861   1.407       .  A
C1860      H1865   1.083       .  S
C1861      C1862   1.419       .  A
C1862      N1863   1.430       .  S
N1863      O1867   1.262       .  A
N1863      O1868   1.262       .  A
N1866      O1870   1.261       .  A
N1866      O2567   1.262       .  A
O1869      N2564   1.262       .  A
C1871      C1872   1.409       .  A
C1871      C1876   1.405       .  A
C1871      H1878   1.083       .  S
C1872      C1873   1.414       .  A
C1873      C1874   1.402       .  A
C1873      N1880   1.429       .  S
C1874      C1875   1.403       .  A
C1874      H1879   1.084       .  S
C1875      C1876   1.411       .  A
N1877      O1881   1.263       .  A
N1877      O1882   1.262       .  A
N1880      O1884   1.262       .  A
N1880      O1883   1.262       .  A
C1885      C1886   1.409       .  A
C1885      C1890   1.405       .  A
C1885      H1892   1.084       .  S
C1886      C1887   1.416       .  A
C1887      C1888   1.403       .  A
C1887      N1894   1.428       .  S
C1888      C1889   1.401       .  A
C1888      H1893   1.084       .  S
C1889      C1890   1.408       .  A
C1890      N1891   1.428       .  S
N1891      O1895   1.262       .  A
N1891      O1896   1.262       .  A
N1894      O1898   1.261       .  A
N1894      O1897   1.262       .  A
C1899      C1900   1.402       .  A
C1899      C1904   1.405       .  A
C1899      H1906   1.084       .  S
C1900      C1901   1.408       .  A
C1901      C1902   1.404       .  A
C1901      N1908   1.430       .  S
C1902      C1903   1.410       .  A
C1902      H1907   1.083       .  S
C1903      C1904   1.418       .  A
C1904      N1905   1.428       .  S
N1905      O1909   1.261       .  A
N1905      O1910   1.262       .  A
N1908      O1911   1.262       .  A
C1913      C1914   1.407       .  A
C1913      C1918   1.402       .  A
C1913      H1920   1.082       .  S
C1914      C1915   1.421       .  A
C1915      C1916   1.404       .  A
C1916      C1917   1.397       .  A
C1916      H1921   1.082       .  S
C1917      C1918   1.410       .  A
C1918      N1919   1.426       .  S
N1919      O1923   1.262       .  A
N1919      O1924   1.262       .  A
N1922      O1926   1.263       .  A
N1922      O1925   1.263   1_455  A
C1927      C1928   1.398       .  A
C1927      C1932   1.404       .  A
C1927      H1934   1.090       .  S
C1928      C1929   1.404       .  A
C1929      C1930   1.400       .  A
C1930      C1931   1.407       .  A
C1930      H1935   1.103       .  S
C1931      C1932   1.423       .  A
C1932      N1933   1.429       .  S
N1933      O1937   1.262       .  A
N1933      O1938   1.261       .  A
N1936      O1940   1.262       .  A
N1936      O1939   1.262       .  A
C1941      C1942   1.409       .  A
C1941      C1946   1.404       .  A
C1941      H1948   1.082       .  S
C1942      C1943   1.421       .  A
C1943      C1944   1.395       .  A
C1943      N1950   1.431       .  S
C1944      C1945   1.390       .  A
C1944      H1949   1.081       .  S
C1945      C1946   1.408       .  A
C1946      N1947   1.426       .  S
N1947      O1951   1.261       .  A
N1947      O1952   1.262       .  A
N1950      O1954   1.263       .  A
N1950      O1953   1.261       .  A
C1955      C1956   1.405       .  A
C1955      C1960   1.400       .  A
C1955      H1962   1.084       .  S
C1956      C1957   1.416       .  A
C1957      C1958   1.401       .  A
C1957      N1964   1.432       .  S
C1958      C1959   1.399       .  A
C1958      H1963   1.082       .  S
C1959      C1960   1.407       .  A
C1960      N1961   1.429       .  S
N1961      O1965   1.261       .  A
N1961      O1966   1.262       .  A
N1964      O1968   1.262       .  A
N1964      O1967   1.262       .  A
C1969      C1970   1.402       .  A
C1969      C1974   1.402       .  A
C1969      H1976   1.084       .  S
C1970      C1971   1.410       .  A
C1971      C1972   1.403       .  A
C1971      N1978   1.433       .  S
C1972      C1973   1.404       .  A
C1972      H1977   1.084       .  S
C1973      C1974   1.416       .  A
C1974      N1975   1.440       .  S
N1975      O1979   1.263       .  A
N1975      O1980   1.261       .  A
N1978      O1982   1.262       .  A
N1978      O1981   1.262       .  A
C1983      C1984   1.400       .  A
C1983      C1988   1.401       .  A
C1983      H1990   1.084       .  S
C1984      C1985   1.406       .  A
C1985      C1986   1.398       .  A
C1985      N1992   1.429       .  S
C1986      C1987   1.406       .  A
C1986      H1991   1.083       .  S
C1987      C1988   1.413       .  A
C1988      N1989   1.428       .  S
N1989      O1993   1.262       .  A
N1989      O1994   1.262       .  A
N1992      O1996   1.262       .  A
N1992      O1995   1.262       .  A
C1997      C1998   1.403       .  A
C1997      C2002   1.395       .  A
C1997      H2004   1.082       .  S
C1998      C1999   1.418       .  A
C1999      C2000   1.406       .  A
C1999      N2006   1.428       .  S
C2000      C2001   1.404       .  A
C2000      H2005   1.083       .  S
C2001      C2002   1.421       .  A
C2002      N2003   1.438       .  S
N2003      O2007   1.263       .  A
N2003      O2008   1.262       .  A
N2006      O2010   1.262       .  A
N2006      O2009   1.262       .  A
C2011      C2012   1.401       .  A
C2011      C2016   1.403       .  A
C2011      H2018   1.079       .  S
C2012      C2013   1.410       .  A
C2013      C2014   1.400       .  A
C2013      N2020   1.425       .  S
C2014      C2015   1.401       .  A
C2014      H2019   1.084       .  S
C2015      C2016   1.415       .  A
C2016      N2017   1.434       .  S
N2017      O2021   1.262       .  A
N2017      O2022   1.262       .  A
N2020      O2024   1.262       .  A
N2020      O2023   1.262       .  A
C2025      C2026   1.400       .  A
C2025      C2030   1.402       .  A
C2025      H2032   1.081       .  S
C2026      C2027   1.406       .  A
C2027      C2028   1.398       .  A
C2027      N2034   1.426       .  S
C2028      C2029   1.403       .  A
C2028      H2033   1.084       .  S
C2029      C2030   1.416       .  A
C2029      C2153   1.484   1_545  S
C2030      N2031   1.434       .  S
N2031      O2035   1.262       .  A
N2031      O2036   1.262       .  A
N2034      O2038   1.261       .  A
N2034      O2037   1.262       .  A
C2039      C2040   1.391       .  A
C2039      C2044   1.396       .  A
C2039      H2046   1.076       .  S
C2040      C2041   1.414       .  A
C2041      C2042   1.408       .  A
C2041      N2048   1.435       .  S
C2042      C2043   1.405       .  A
C2042      H2047   1.083       .  S
C2043      C2044   1.415       .  A
C2043      C2135   1.490   1_545  S
C2044      N2743   1.436       .  S
N2045      C2742   1.436       .  S
N2045      O2049   1.263       .  A
N2045      O2050   1.262       .  A
N2048      O2052   1.260       .  A
N2048      O2051   1.263       .  A
C2053      C2054   1.398       .  A
C2053      C2058   1.404       .  A
C2053      H2060   1.084       .  S
C2054      C2055   1.408       .  A
C2055      C2056   1.401       .  A
C2055      N2062   1.432       .  S
C2056      C2057   1.407       .  A
C2056      H2061   1.083       .  S
C2057      C2058   1.422       .  A
C2058      N2059   1.429       .  S
N2059      O2063   1.262       .  A
N2059      O2064   1.262       .  A
N2062      O2066   1.262       .  A
N2062      O2065   1.262       .  A
C2067      C2068   1.403       .  A
C2067      C2072   1.397       .  A
C2067      H2074   1.083       .  S
C2068      C2069   1.418       .  A
C2069      C2070   1.400       .  A
C2069      N2076   1.435       .  S
C2070      C2071   1.395       .  A
C2070      H2075   1.083       .  S
C2071      C2072   1.408       .  A
C2072      N2073   1.424       .  S
N2073      O2077   1.261       .  A
N2073      O2078   1.262       .  A
N2076      O2080   1.263       .  A
N2076      O2079   1.263       .  A
C2081      C2082   1.412       .  A
C2081      C2086   1.400       .  A
C2081      H2088   1.078       .  S
C2082      C2083   1.426       .  A
C2083      C2084   1.397       .  A
C2083      N2090   1.429       .  S
C2084      C2085   1.393       .  A
C2084      H2089   1.083       .  S
C2085      C2086   1.404       .  A
C2086      N2087   1.427       .  S
N2087      O2091   1.262       .  A
N2087      O2092   1.262       .  A
N2090      O2094   1.263       .  A
N2090      O2093   1.261       .  A
C2095      C2096   1.401       .  A
C2095      C2100   1.397       .  A
C2095      C2752   1.477       .  S
C2096      C2097   1.415       .  A
C2096      H2101   1.080       .  S
C2097      C2098   1.409       .  A
C2097      C2780   1.509       .  S
C2098      C2099   1.404       .  A
C2098      H2102   1.079       .  S
C2099      C2100   1.403       .  A
C2099      C2766   1.488       .  S
C2100      H2103   1.083       .  S
C2104      H2105   1.105       .  S
C2104      C2110   1.542       .  S
C2104      C2109   1.541       .  S
C2104      C2108   1.533       .  S
C2106      H2107   1.109       .  S
C2106      C2112   1.541       .  S
C2106      C2111   1.541       .  S
C2106      C2113   1.533       .  S
C2108      C2111   1.369       .  D
C2108      C2738   1.481       .  S
C2109      C2112   1.387       .  D
C2109      C2696   1.504       .  S
C2110      C2113   1.371       .  D
C2110      C2769   1.478       .  S
C2111      C2724   1.485       .  S
C2112      C2685   1.490       .  S
C2113      C2710   1.491       .  S
C2114      H2115   1.111       .  S
C2114      C2120   1.535       .  S
C2114      C2119   1.533       .  S
C2114      C2118   1.541       .  S
C2116      H2117   1.104       .  S
C2116      C2122   1.541       .  S
C2116      C2121   1.545       .  S
C2116      C2123   1.532       .  S
C2118      C2121   1.385       .  D
C2118      C2615   1.485       .  S
C2119      C2122   1.374       .  D
C2119      C2783   1.482       .  S
C2120      C2123   1.368       .  D
C2120      C2643   1.482       .  S
C2121      C2629   1.506       .  S
C2122      C2671   1.486       .  S
C2123      C2657   1.479       .  S
C2124      C2125   1.410       .  A
C2124      C2129   1.409       .  A
C2124      C2598   1.487       .  S
C2125      C2126   1.409       .  A
C2126      C2127   1.401       .  A
C2127      C2128   1.398       .  A
C2127      H2131   1.074       .  S
C2128      C2129   1.408       .  A
C2128      C2699   1.498       .  S
C2129      H2132   1.083       .  S
C2133      C2134   1.407       .  A
C2133      C2138   1.410       .  A
C2133      C2587   1.489       .  S
C2134      C2135   1.404       .  A
C2135      C2136   1.402       .  A
C2136      C2137   1.405       .  A
C2136      H2140   1.082       .  S
C2137      C2138   1.412       .  A
C2137      C2640   1.502       .  S
C2138      H2141   1.082       .  S
C2142      C2143   1.411       .  A
C2142      C2147   1.404       .  A
C2142      C2573   1.482       .  S
C2143      C2144   1.407       .  A
C2144      C2145   1.398       .  A
C2145      C2146   1.398       .  A
C2145      H2149   1.083       .  S
C2146      C2147   1.399       .  A
C2146      C2682   1.472       .  S
C2147      H2150   1.084       .  S
C2151      C2152   1.400       .  A
C2151      C2156   1.402       .  A
C2151      C2556   1.472       .  S
C2152      C2153   1.402       .  A
C2153      C2154   1.405       .  A
C2154      C2155   1.405       .  A
C2154      H2158   1.084       .  S
C2155      C2156   1.405       .  A
C2155      C2654   1.485       .  S
C2156      H2159   1.084       .  S
C2160      C2161   1.402       .  A
C2160      C2165   1.401       .  A
C2160      C2542   1.478       .  S
C2161      C2162   1.406       .  A
C2161      H2166   1.084       .  S
C2162      C2163   1.408       .  A
C2162      C2713   1.486       .  S
C2163      C2164   1.404       .  A
C2163      H2167   1.084       .  S
C2164      C2165   1.401       .  A
C2164      C2668   1.481       .  S
C2165      H2168   1.084       .  S
Zn2169     O2173   1.967       .  S
Zn2169     O2178   2.034       .  S
Zn2169     O2185   2.034       .  S
Zn2170     O2175   2.006       .  S
Zn2171     O2173   1.953       .  S
Zn2171     O2176   2.015       .  S
Zn2171     O2182   2.012       .  S
Zn2172     O2173   1.959       .  S
Zn2172     O2180   2.015       .  S
Zn2172     O2184   2.018       .  S
O2174      C2186   1.274       .  A
O2175      C2187   1.271       .  A
O2176      C2188   1.274       .  A
O2177      C2186   1.271       .  A
O2178      C2188   1.275       .  A
O2179      C2187   1.274       .  A
O2180      C2189   1.273       .  A
O2181      C2190   1.272       .  A
O2182      C2189   1.275       .  A
O2183      C2190   1.275       .  A
O2184      C2191   1.274       .  A
O2185      C2191   1.276       .  A
C2186      C2528   1.473       .  S
C2187      C2545   1.486       .  S
C2188      C2570   1.490       .  S
C2189      C2559   1.488       .  S
C2190      C2517   1.483       .  S
C2191      C2503   1.487       .  S
Zn2192     O2201   2.013   1_556  S
Zn2193     O2196   1.966       .  S
Zn2193     O2198   2.015   1_556  S
Zn2193     O2204   2.028       .  S
Zn2194     O2196   1.973   1_554  S
Zn2194     O2202   2.047       .  S
Zn2194     O2205   2.045       .  S
Zn2195     O2196   1.965       .  S
Zn2195     O2203   2.031   1_556  S
Zn2195     O2206   2.014       .  S
O2197      C2209   1.276       .  A
O2198      C2210   1.274       .  A
O2199      C2211   1.278       .  A
O2200      C2209   1.274       .  A
O2201      C2211   1.273       .  A
O2202      C2210   1.276       .  A
O2203      C2212   1.276       .  A
O2204      C2213   1.274       .  A
O2205      C2212   1.277       .  A
O2206      C2213   1.274       .  A
O2207      C2214   1.272       .  A
O2208      C2214   1.276       .  A
C2209      C2475   1.485       .  S
C2210      C2601   1.495       .  S
C2211      C2755   1.493       .  S
C2212      C2584   1.490       .  S
C2213      C2458   1.477       .  S
C2214      C2486   1.482       .  S
C2215      C2216   1.409       .  A
C2215      C2220   1.411       .  A
C2215      C2514   1.489       .  S
C2216      C2217   1.403       .  A
C2216      H2221   1.081       .  S
C2217      C2218   1.403       .  A
C2217      C2430   1.498       .  S
C2218      C2219   1.400       .  A
C2218      H2222   1.078       .  S
C2219      C2220   1.410       .  A
C2224      C2225   1.417       .  A
C2224      C2229   1.407       .  A
C2224      C2489   1.496       .  S
C2225      C2226   1.413       .  A
C2225      H2230   1.083       .  S
C2226      C2227   1.398       .  A
C2226      C2402   1.490       .  S
C2227      C2228   1.397       .  A
C2227      H2231   1.081       .  S
C2228      C2229   1.397       .  A
C2233      H2234   1.111       .  S
C2233      C2239   1.542       .  S
C2233      C2238   1.533       .  S
C2233      C2237   1.537       .  S
C2235      H2236   1.107       .  S
C2235      C2241   1.537       .  S
C2235      C2240   1.542       .  S
C2235      C2242   1.532       .  S
C2237      C2240   1.382       .  D
C2237      C2346   1.496       .  S
C2238      C2241   1.378       .  D
C2238      C2374   1.491       .  S
C2239      C2242   1.379       .  D
C2239      C2433   1.482       .  S
C2240      C2360   1.495       .  S
C2241      C2388   1.487       .  S
C2242      C2405   1.494       .  S
C2243      H2244   1.104       .  S
C2243      C2249   1.559       .  S
C2243      C2248   1.562       .  S
C2243      C2247   1.536       .  S
C2245      H2246   1.094       .  S
C2245      C2251   1.528       .  S
C2245      C2250   1.545       .  S
C2245      C2252   1.520       .  S
C2247      C2250   1.382       .  D
C2247      C2447   1.508       .  S
C2248      C2251   1.395       .  D
C2248      C2307   1.514       .  S
C2249      C2252   1.373       .  D
C2249      C2335   1.502       .  S
C2250      C2419   1.482       .  S
C2251      C2290   1.508       .  S
C2252      C2321   1.505       .  S
C2253      C2254   1.409       .  A
C2253      C2258   1.402       .  A
C2253      C2531   1.481       .  S
C2254      C2255   1.408       .  A
C2255      C2256   1.408       .  A
C2256      C2257   1.399       .  A
C2256      H2260   1.077       .  S
C2257      C2258   1.394       .  A
C2257      C2332   1.473       .  S
C2258      H2261   1.084       .  S
C2262      C2263   1.405       .  A
C2262      C2267   1.408       .  A
C2262      C2500   1.498       .  S
C2263      C2264   1.406       .  A
C2263      H2268   1.082       .  S
C2264      C2265   1.401       .  A
C2264      C2304   1.495       .  S
C2265      C2266   1.410       .  A
C2265      H2269   1.082       .  S
C2266      C2267   1.411       .  A
C2266      C2349   1.504       .  S
C2267      H2270   1.078       .  S
C2271      C2272   1.407       .  A
C2271      C2276   1.409       .  A
C2271      C2461   1.490       .  S
C2272      C2273   1.399       .  A
C2272      H2277   1.084       .  S
C2273      C2274   1.399       .  A
C2273      C2293   1.471       .  S
C2274      C2275   1.399       .  A
C2274      H2278   1.083       .  S
C2275      C2276   1.404       .  A
C2275      C2363   1.474       .  S
C2276      H2279   1.083       .  S
C2280      C2281   1.410       .  A
C2280      C2285   1.403   1_565  A
C2280      C2472   1.496       .  S
C2281      C2282   1.421       .  A
C2281      H2286   1.081       .  S
C2282      C2283   1.409       .  A
C2282      C2318   1.518       .  S
C2283      C2284   1.400   1_565  A
C2283      H2287   1.073       .  S
C2284      C2285   1.401       .  A
C2289      C2290   1.410       .  A
C2289      C2294   1.401       .  A
C2289      H2296   1.084       .  S
C2290      C2291   1.427       .  A
C2291      C2292   1.399       .  A
C2291      N2298   1.429       .  S
C2292      C2293   1.392       .  A
C2292      H2297   1.084       .  S
C2293      C2294   1.404       .  A
C2294      N2295   1.429       .  S
N2295      O2299   1.262       .  A
N2295      O2300   1.262       .  A
N2298      O2302   1.262       .  A
N2298      O2301   1.260       .  A
C2303      C2304   1.398       .  A
C2303      C2308   1.401       .  A
C2303      H2310   1.084       .  S
C2304      C2305   1.416       .  A
C2305      C2306   1.401       .  A
C2305      N2312   1.433       .  S
C2306      C2307   1.410       .  A
C2306      H2311   1.082       .  S
C2307      C2308   1.419       .  A
C2308      N2309   1.422       .  S
N2309      O2313   1.263       .  A
N2309      O2314   1.261       .  A
N2312      O2316   1.263       .  A
N2312      O2315   1.262       .  A
C2317      C2318   1.412       .  A
C2317      C2322   1.406       .  A
C2317      H2324   1.081       .  S
C2318      C2319   1.427       .  A
C2319      C2320   1.397       .  A
C2319      N2326   1.426       .  S
C2320      C2321   1.398       .  A
C2320      H2325   1.080       .  S
C2321      C2322   1.412       .  A
C2322      N2323   1.427       .  S
N2323      O2327   1.262       .  A
N2323      O2328   1.262       .  A
N2326      O2330   1.259       .  A
N2326      O2329   1.262       .  A
C2331      C2332   1.395       .  A
C2331      C2336   1.397       .  A
C2331      H2338   1.085       .  S
C2332      C2333   1.404       .  A
C2333      C2334   1.407       .  A
C2333      N2340   1.433       .  S
C2334      C2335   1.415       .  A
C2334      H2339   1.084       .  S
C2335      C2336   1.411       .  A
C2336      N2337   1.425       .  S
N2337      O2341   1.263       .  A
N2337      O2342   1.261       .  A
N2340      O2344   1.263       .  A
N2340      O2343   1.262       .  A
C2345      C2346   1.406       .  A
C2345      C2350   1.409       .  A
C2345      H2352   1.081       .  S
C2346      C2347   1.415       .  A
C2347      C2348   1.394       .  A
C2347      N2354   1.440       .  S
C2348      C2349   1.407       .  A
C2348      H2353   1.074       .  S
C2349      C2350   1.419       .  A
C2350      N2351   1.437       .  S
N2351      O2355   1.263       .  A
N2351      O2356   1.263       .  A
N2354      O2358   1.259       .  A
N2354      O2357   1.263       .  A
C2359      C2360   1.406       .  A
C2359      C2364   1.405       .  A
C2359      H2366   1.084       .  S
C2360      C2361   1.415       .  A
C2361      C2362   1.398       .  A
C2361      N2368   1.427       .  S
C2362      C2363   1.396       .  A
C2362      H2367   1.084       .  S
C2363      C2364   1.409       .  A
C2364      N2365   1.430       .  S
N2365      O2369   1.262       .  A
N2365      O2370   1.262       .  A
N2368      O2372   1.259       .  A
N2368      O2371   1.263       .  A
C2373      C2374   1.402       .  A
C2373      C2378   1.407       .  A
C2373      H2380   1.082       .  S
C2374      C2375   1.405       .  A
C2375      C2376   1.398       .  A
C2375      N2382   1.428       .  S
C2376      C2377   1.409       .  A
C2376      H2381   1.081       .  S
C2377      C2378   1.420       .  A
C2378      N2379   1.433       .  S
N2379      O2383   1.262       .  A
N2379      O2384   1.263       .  A
N2382      O2386   1.260       .  A
N2382      O2385   1.262       .  A
C2387      C2388   1.398       .  A
C2387      C2392   1.392       .  A
C2387      H2394   1.076       .  S
C2388      C2389   1.410       .  A
C2389      C2390   1.405       .  A
C2389      N2396   1.429       .  S
C2390      C2391   1.406       .  A
C2390      H2395   1.084       .  S
C2391      C2392   1.413       .  A
C2392      N2393   1.432       .  S
N2393      O2397   1.263       .  A
N2393      O2398   1.262       .  A
N2396      O2400   1.262       .  A
N2396      O2399   1.262       .  A
C2401      C2402   1.405       .  A
C2401      C2406   1.404       .  A
C2401      H2408   1.084       .  S
C2402      C2403   1.413       .  A
C2403      C2404   1.406       .  A
C2403      N2410   1.434       .  S
C2404      C2405   1.405       .  A
C2404      H2409   1.081       .  S
C2405      C2406   1.412       .  A
C2406      N2407   1.430       .  S
N2407      O2411   1.262       .  A
N2407      O2412   1.262       .  A
N2410      O2414   1.262       .  A
N2410      O2413   1.262       .  A
C2415      C2416   1.403       .  A
C2415      C2420   1.401       .  A
C2415      H2422   1.084       .  S
C2416      C2417   1.408       .  A
C2417      C2418   1.396       .  A
C2417      N2424   1.432       .  S
C2418      C2419   1.398       .  A
C2418      H2423   1.076       .  S
C2419      C2420   1.414       .  A
C2420      N2421   1.432       .  S
N2421      O2425   1.260       .  A
N2421      O2426   1.262       .  A
N2424      O2427   1.262       .  A
C2429      C2430   1.407       .  A
C2429      C2434   1.396       .  A
C2429      H2436   1.083       .  S
C2430      C2431   1.418       .  A
C2431      C2432   1.401       .  A
C2431      N2438   1.426       .  S
C2432      C2433   1.396       .  A
C2432      H2437   1.076       .  S
C2433      C2434   1.405       .  A
C2434      N2435   1.425       .  S
N2435      O2439   1.262       .  A
N2435      O2440   1.260       .  A
N2438      O2442   1.262       .  A
N2438      O2441   1.261       .  A
C2443      C2444   1.403       .  A
C2443      C2448   1.406       .  A
C2443      H2450   1.083       .  S
C2444      C2445   1.420       .  A
C2445      C2446   1.399       .  A
C2446      C2447   1.403       .  A
C2446      H2451   1.080       .  S
C2447      C2448   1.417       .  A
C2448      N2449   1.425       .  S
N2449      O2453   1.261       .  A
N2449      O2454   1.262       .  A
N2452      O2456   1.262       .  A
N2452      O2455   1.263       .  A
C2457      C2458   1.402       .  A
C2457      C2462   1.406       .  A
C2457      H2464   1.084       .  S
C2458      C2459   1.409       .  A
C2459      C2460   1.399       .  A
C2459      N2466   1.431       .  S
C2460      C2461   1.406       .  A
C2460      H2465   1.084       .  S
C2461      C2462   1.418       .  A
C2462      N2463   1.436       .  S
N2463      O2467   1.262       .  A
N2463      O2468   1.263       .  A
N2466      O2470   1.262       .  A
N2466      O2469   1.262       .  A
C2471      C2472   1.406       .  A
C2471      C2476   1.405       .  A
C2471      H2478   1.084       .  S
C2472      C2473   1.417       .  A
C2473      C2474   1.404       .  A
C2473      N2480   1.433   1_565  S
C2474      C2475   1.401       .  A
C2474      H2479   1.084   1_565  S
C2475      C2476   1.414       .  A
C2476      N2477   1.433       .  S
N2477      O2481   1.262       .  A
N2477      O2482   1.262       .  A
N2480      O2484   1.263       .  A
N2480      O2483   1.262   1_545  A
C2485      C2486   1.405       .  A
C2485      C2490   1.408       .  A
C2485      H2492   1.084       .  S
C2486      C2487   1.410       .  A
C2487      C2488   1.403       .  A
C2488      C2489   1.408       .  A
C2489      C2490   1.416       .  A
C2490      N2491   1.434       .  S
N2491      O2495   1.262       .  A
N2491      O2496   1.262       .  A
N2494      O2498   1.263       .  A
N2494      O2497   1.262       .  A
C2499      C2500   1.408       .  A
C2499      C2504   1.405       .  A
C2499      H2506   1.083       .  S
C2500      C2501   1.420       .  A
C2501      C2502   1.403       .  A
C2501      N2508   1.436       .  S
C2502      C2503   1.404       .  A
C2502      H2507   1.084       .  S
C2503      C2504   1.414       .  A
C2504      N2505   1.434       .  S
N2505      O2509   1.262       .  A
N2505      O2510   1.262       .  A
N2508      O2512   1.263       .  A
N2508      O2511   1.263       .  A
C2513      C2514   1.404       .  A
C2513      C2518   1.406       .  A
C2514      C2515   1.416       .  A
C2515      C2516   1.403       .  A
C2515      N2522   1.437       .  S
C2516      C2517   1.402       .  A
C2516      H2521   1.084       .  S
C2517      C2518   1.416       .  A
N2519      O2523   1.262       .  A
N2519      O2524   1.262       .  A
N2522      O2526   1.263       .  A
N2522      O2525   1.263       .  A
C2527      C2528   1.403       .  A
C2527      C2532   1.398       .  A
C2527      H2534   1.084   1_565  S
C2528      C2529   1.409       .  A
C2529      C2530   1.400       .  A
C2529      N2536   1.432       .  S
C2530      C2531   1.406       .  A
C2530      H2535   1.084       .  S
C2531      C2532   1.413       .  A
C2532      N2533   1.436   1_565  S
N2533      O2537   1.263       .  A
N2533      O2538   1.263       .  A
N2536      O2540   1.262       .  A
N2536      O2539   1.262       .  A
C2541      C2542   1.400       .  A
C2541      C2546   1.403       .  A
C2541      H2548   1.084       .  S
C2542      C2543   1.409       .  A
C2543      C2544   1.399       .  A
C2543      N2550   1.430       .  S
C2544      C2545   1.405       .  A
C2544      H2549   1.084       .  S
C2545      C2546   1.417       .  A
C2546      N2547   1.431       .  S
N2547      O2551   1.262       .  A
N2547      O2552   1.262       .  A
N2550      O2554   1.262       .  A
N2550      O2553   1.262       .  A
C2555      C2556   1.399       .  A
C2555      C2560   1.403       .  A
C2555      H2562   1.084       .  S
C2556      C2557   1.404       .  A
C2557      C2558   1.397       .  A
C2557      N2564   1.429       .  S
C2558      C2559   1.407       .  A
C2558      H2563   1.083       .  S
C2559      C2560   1.419       .  A
C2560      N2561   1.430       .  S
N2561      O2565   1.262   1_565  A
N2561      O2566   1.262       .  A
N2564      O2568   1.262       .  A
C2569      C2570   1.409       .  A
C2569      C2574   1.404       .  A
C2569      H2576   1.084       .  S
C2570      C2571   1.414       .  A
C2571      C2572   1.402       .  A
C2571      N2578   1.429       .  S
C2572      C2573   1.404       .  A
C2572      H2577   1.084       .  S
C2573      C2574   1.411       .  A
N2575      O2579   1.263       .  A
N2575      O2580   1.262       .  A
N2578      O2582   1.262       .  A
N2578      O2581   1.262       .  A
C2583      C2584   1.407       .  A
C2583      C2588   1.406       .  A
C2583      H2590   1.084       .  S
C2584      C2585   1.412       .  A
C2585      C2586   1.404       .  A
C2585      N2592   1.428       .  S
C2586      C2587   1.404       .  A
C2586      H2591   1.084       .  S
C2587      C2588   1.412       .  A
C2588      N2589   1.432       .  S
N2589      O2593   1.262   1_565  A
N2589      O2594   1.262       .  A
N2592      O2596   1.261       .  A
N2592      O2595   1.262       .  A
C2597      C2598   1.403       .  A
C2597      C2602   1.405       .  A
C2597      H2604   1.084       .  S
C2598      C2599   1.410       .  A
C2599      C2600   1.403       .  A
C2599      N2606   1.432       .  S
C2600      C2601   1.409       .  A
C2600      H2605   1.084       .  S
C2601      C2602   1.416       .  A
C2602      N2603   1.428       .  S
N2603      O2607   1.261       .  A
N2603      O2608   1.262       .  A
N2606      O2609   1.262       .  A
C2611      C2612   1.407       .  A
C2611      C2616   1.400       .  A
C2611      H2618   1.082       .  S
C2612      C2613   1.421       .  A
C2613      C2614   1.404       .  A
C2614      C2615   1.397       .  A
C2614      H2619   1.082       .  S
C2615      C2616   1.409       .  A
C2616      N2617   1.426       .  S
N2617      O2621   1.262       .  A
N2617      O2622   1.262       .  A
N2620      O2624   1.263       .  A
N2620      O2623   1.263   1_455  A
C2625      C2626   1.399       .  A
C2625      C2630   1.404       .  A
C2625      H2632   1.084       .  S
C2626      C2627   1.407       .  A
C2627      C2628   1.405       .  A
C2628      C2629   1.409       .  A
C2628      H2633   1.076       .  S
C2629      C2630   1.421       .  A
C2630      N2631   1.431       .  S
N2631      O2635   1.262       .  A
N2631      O2636   1.262       .  A
N2634      O2638   1.262       .  A
N2634      O2637   1.262       .  A
C2639      C2640   1.409       .  A
C2639      C2644   1.405       .  A
C2639      H2646   1.082       .  S
C2640      C2641   1.422       .  A
C2641      C2642   1.396       .  A
C2641      N2648   1.432       .  S
C2642      C2643   1.390       .  A
C2642      H2647   1.081       .  S
C2643      C2644   1.408       .  A
C2644      N2645   1.426       .  S
N2645      O2649   1.261       .  A
N2645      O2650   1.262       .  A
N2648      O2652   1.263       .  A
N2648      O2651   1.262       .  A
C2653      C2654   1.405       .  A
C2653      C2658   1.399       .  A
C2653      H2660   1.084       .  S
C2654      C2655   1.416       .  A
C2655      C2656   1.402       .  A
C2655      N2662   1.434       .  S
C2656      C2657   1.399       .  A
C2656      H2661   1.082       .  S
C2657      C2658   1.406       .  A
C2658      N2659   1.429       .  S
N2659      O2663   1.261       .  A
N2659      O2664   1.262       .  A
N2662      O2666   1.262       .  A
N2662      O2665   1.262       .  A
C2667      C2668   1.401       .  A
C2667      C2672   1.402       .  A
C2667      H2674   1.084       .  S
C2668      C2669   1.410       .  A
C2669      C2670   1.404       .  A
C2669      N2676   1.433       .  S
C2670      C2671   1.404       .  A
C2670      H2675   1.083       .  S
C2671      C2672   1.416       .  A
C2672      N2673   1.438       .  S
N2673      O2677   1.263       .  A
N2673      O2678   1.261       .  A
N2676      O2680   1.262       .  A
N2676      O2679   1.262       .  A
C2681      C2682   1.400       .  A
C2681      C2686   1.400       .  A
C2681      H2688   1.084       .  S
C2682      C2683   1.405       .  A
C2683      C2684   1.397       .  A
C2683      N2690   1.429       .  S
C2684      C2685   1.406       .  A
C2684      H2689   1.082       .  S
C2685      C2686   1.413       .  A
C2686      N2687   1.428       .  S
N2687      O2691   1.262       .  A
N2687      O2692   1.262       .  A
N2690      O2694   1.262       .  A
N2690      O2693   1.262       .  A
C2695      C2696   1.403       .  A
C2695      C2700   1.395       .  A
C2695      H2702   1.082       .  S
C2696      C2697   1.418       .  A
C2697      C2698   1.406       .  A
C2697      N2704   1.429       .  S
C2698      C2699   1.404       .  A
C2698      H2703   1.083       .  S
C2699      C2700   1.421       .  A
C2700      N2701   1.439       .  S
N2701      O2705   1.263       .  A
N2701      O2706   1.262       .  A
N2704      O2708   1.262       .  A
N2704      O2707   1.262       .  A
C2709      C2710   1.400       .  A
C2709      C2714   1.403       .  A
C2709      H2716   1.079       .  S
C2710      C2711   1.410       .  A
C2711      C2712   1.400       .  A
C2711      N2718   1.425       .  S
C2712      C2713   1.401       .  A
C2712      H2717   1.084       .  S
C2713      C2714   1.416       .  A
C2714      N2715   1.434       .  S
N2715      O2719   1.262       .  A
N2715      O2720   1.262       .  A
N2718      O2722   1.262       .  A
N2718      O2721   1.262       .  A
C2723      C2724   1.401       .  A
C2723      C2728   1.403       .  A
C2723      H2730   1.081       .  S
C2724      C2725   1.406       .  A
C2725      C2726   1.399       .  A
C2725      N2732   1.426       .  S
C2726      C2727   1.404       .  A
C2726      H2731   1.084       .  S
C2727      C2728   1.417       .  A
C2728      N2729   1.435       .  S
N2729      O2733   1.262       .  A
N2729      O2734   1.262       .  A
N2732      O2736   1.261       .  A
N2732      O2735   1.262       .  A
C2737      C2738   1.391       .  A
C2737      C2742   1.396       .  A
C2737      H2744   1.077       .  S
C2738      C2739   1.414       .  A
C2739      C2740   1.407       .  A
C2739      N2746   1.434       .  S
C2740      C2741   1.405       .  A
C2740      H2745   1.083       .  S
C2741      C2742   1.415       .  A
N2743      O2747   1.263   1_545  A
N2743      O2748   1.262   1_545  A
N2746      O2750   1.260       .  A
N2746      O2749   1.262       .  A
C2751      C2752   1.398       .  A
C2751      C2756   1.404       .  A
C2751      H2758   1.084       .  S
C2752      C2753   1.407       .  A
C2753      C2754   1.399       .  A
C2753      N2760   1.429       .  S
C2754      C2755   1.407       .  A
C2754      H2759   1.083       .  S
C2755      C2756   1.421       .  A
C2756      N2757   1.429       .  S
N2757      O2761   1.262       .  A
N2757      O2762   1.262       .  A
N2760      O2764   1.262       .  A
N2760      O2763   1.262       .  A
C2765      C2766   1.403       .  A
C2765      C2770   1.397       .  A
C2765      H2772   1.083       .  S
C2766      C2767   1.418       .  A
C2767      C2768   1.399       .  A
C2767      N2774   1.435       .  S
C2768      C2769   1.395       .  A
C2768      H2773   1.082       .  S
C2769      C2770   1.408       .  A
C2770      N2771   1.424       .  S
N2771      O2775   1.261       .  A
N2771      O2776   1.262       .  A
N2774      O2778   1.263       .  A
N2774      O2777   1.263       .  A
C2779      C2780   1.412       .  A
C2779      C2784   1.399       .  A
C2779      H2786   1.079       .  S
C2780      C2781   1.425       .  A
C2781      C2782   1.397       .  A
C2781      N2788   1.430       .  S
C2782      C2783   1.394       .  A
C2782      H2787   1.083       .  S
C2783      C2784   1.404       .  A
C2784      N2785   1.427       .  S
N2785      O2789   1.262       .  A
N2785      O2790   1.262       .  A
N2788      O2792   1.263       .  A
N2788      O2791   1.261       .  A
