geometry optimzed in LAMMPS
_audit_creation_date              2020-11-30 
_audit_creation_method            'lammps2cif' 
_symmetry_space_group_name_H-M    'P1' 
_symmetry_Int_Tables_number       1 
_symmetry_cell_setting            triclinic 
loop_ 
_symmetry_equiv_pos_as_xyz 
  x,y,z 
_cell_length_a                    46.06624723 
_cell_length_b                    43.61976949755029 
_cell_length_c                    33.78280590362325 
_cell_angle_alpha                 92.00687086893768 
_cell_angle_beta                  94.07147963392687 
_cell_angle_gamma                 122.05861104523035 
loop_ 
_atom_site_label 
_atom_site_type_symbol 
_atom_site_fract_x 
_atom_site_fract_y 
_atom_site_fract_z 
_atom_site_charge 
C1          C  0.37931335  0.08750541  0.22368735     0.82300
N2          N  0.39752924  0.08804132  0.19368530    -0.76000
C3          C  0.41562024  0.11850532  0.00282958     0.84700
N4          N  0.43583223  0.14156154  0.03497455    -0.76000
C5          C  0.42222854  0.14110605  0.06951928     0.84800
N6          N  0.39590970  0.11184582  0.25648765    -0.77700
C7          C  0.12880748  0.20457466  0.21071204     0.82300
N8          N  0.15432017  0.21525149  0.24116203    -0.76000
C9          C  0.17056559  0.21275123  0.04989916     0.84700
N10         N  0.16986097  0.20188847  0.01144253    -0.76000
C11         C  0.15005414  0.17389324  0.17602079     0.84800
N12         N  0.12708339  0.18417984  0.17844936    -0.77700
C13         C  0.23898884  0.07125070  0.06428723     0.82300
N14         N  0.25850548  0.10814860  0.06233615    -0.76000
C15         C  0.24441091  0.10481831  0.22901222     0.84700
N16         N  0.22194472  0.07958304  0.19961608    -0.76000
C17         C  0.20539076  0.06512361  0.00513085     0.84800
N18         N  0.21231344  0.05010022  0.03588961    -0.77700
C19         C  0.13364111  0.39247285  0.22713136     0.82300
N20         N  0.11749378  0.36561052  0.05809241    -0.76000
C21         C  0.08328756  0.34180392  0.06309650     0.85000
N22         N  0.05855277  0.34103437  0.03781458    -0.76000
C23         C  0.06709001  0.36291251  0.00751639     0.84800
N24         N  0.10918151  0.38561839  0.19739202    -0.77700
C25         C  0.43804440  0.25651106  0.25816678     0.82300
N26         N  0.41890639  0.25276258  0.28923867    -0.76000
C27         C  0.38331619  0.25956429  0.07809503     0.84700
N28         N  0.38152552  0.27964820  0.04927168    -0.76000
C29         C  0.40910497  0.27791639  0.22012433     0.84800
N30         N  0.43253078  0.26868823  0.22439127    -0.77700
C31         C  0.30070538  0.41330620  0.06125955     0.82300
N32         N  0.31432689  0.43409402  0.03033049    -0.76000
C33         C  0.32497491  0.42210799  0.00033103     0.84700
N34         N  0.31396683  0.37626788  0.21068413    -0.76000
C35         C  0.29555235  0.35382444  0.23790036     0.84800
N36         N  0.29815631  0.38062046  0.06224084    -0.77700
O37         O  0.47941854  0.02096200  0.06257559    -0.86300
C38         C  0.06229944  0.06106533  0.96956515     0.89700
Mg39       Mg  0.44365879  0.49879308  0.09737302     1.58100
O40         O  0.05349649  0.96677530  0.07300288    -0.86000
O41         O  0.03666745  0.02347647  0.04269341    -0.73400
C42         C  0.40083611  0.36061573  0.96226406     0.94800
O43         O  0.48902974  0.04409207  0.98129963    -0.73200
O44         O  0.38468627  0.37602255  0.95380194    -0.80700
Mg45       Mg  0.02265576  0.08884241  0.93287428     1.58000
C46         C  0.03648151  0.37515550  0.10434929     0.94700
O47         O  0.07202078  0.09202350  0.08456966    -0.78900
H48         H  0.05468668  0.45765427  0.01507437    -0.04300
C49         C  0.98670503  0.45191279  0.97750283     0.89600
O50         O  0.42985004  0.44731533  0.05515703    -0.73500
O51         O  0.04928142  0.06092340  0.93645009    -0.86200
O52         O  0.05047251  0.40283833  0.08534702    -0.79000
C53         C  0.12913304  0.04312687  0.93383760     0.94800
C54         C  0.10417928  0.10643832  0.08839651     0.94700
Mg55       Mg  0.97648148  0.38684997  0.08943777     1.58000
O56         O  0.42981632  0.37144937  0.95003734    -0.78900
O57         O  0.01318854  0.41920579  0.04103978    -0.73200
O58         O  0.11953182  0.06339469  0.91958289    -0.79000
O59         O  0.50359345  0.11406065  0.94172295    -0.80700
O60         O  0.38518075  0.41892226  0.10833946    -0.79100
C61         C  0.04158823  0.44993332  0.04170237     0.89100
O62         O  0.44671750  0.41557700  0.08768979    -0.86200
O63         O  0.99496233  0.44914576  0.94338782    -0.86300
O64         O  0.45564452  0.44907831  0.98404921    -0.73400
Mg65       Mg  0.08348918  0.02479226  0.07321484     1.58000
O66         O  0.10824409  0.00967352  0.93681590    -0.80700
H67         H  0.99175055  0.02043706  0.03012662    -0.04500
O68         O  0.44072825  0.49020056  0.92827515    -0.86000
H69         H  0.43269442  0.50282979  0.98216831    -0.04300
H70         H  0.42386923  0.40018046  0.03212798    -0.04500
C71         C  0.44860321  0.51160914  0.95782700     0.89100
C72         C  0.00999268  0.02220655  0.05263167     0.89700
C73         C  0.43339132  0.42009115  0.05719076     0.89700
H74         H  0.00542122  0.46260829  0.00236335    -0.04400
O75         O  0.06544631  0.03489124  0.97814791    -0.73500
Mg76       Mg  0.41376068  0.43440185  0.93731078     1.58000
H77         H  0.07073844  0.08350830  0.99164282    -0.04500
C78         C  0.47201979  0.10057093  0.94568404     0.94700
O79         O  0.39062913  0.47093492  0.12186755    -0.80700
C80         C  0.37401601  0.43690159  0.12357487     0.94800
O81         O  0.11689229  0.08736518  0.08135240    -0.80700
Mg82       Mg  0.05005615  0.47086236  0.94021478     1.58200
O83         O  0.44878311  0.06804129  0.93258682    -0.79000
O84         O  0.00387646  0.35590549  0.10246366    -0.80700
C85         C  0.05313505  0.22700057  0.19069866     0.88500
C86         C  0.06935383  0.26004136  0.16655101    -0.51700
C87         C  0.04725780  0.26912201  0.15084870     0.11500
C88         C  0.51140602  0.24809057  0.17243916     0.22400
C89         C  0.03620748  0.23558091  0.22334396    -0.52400
C90         C  0.51253951  0.24679453  0.21870490     0.11600
C91         C  0.02253892  0.19662304  0.16238619    -0.52000
C92         C  0.50090363  0.20946350  0.15706001     0.12100
H93         H  0.09608721  0.27392806  0.16025676     0.16700
H94         H  0.49395311  0.25630533  0.15943759     0.02400
H95         H  0.04040575  0.23266158  0.25467777     0.17000
H96         H  0.01961932  0.17079792  0.15444763     0.16700
C97         C  0.26911929  0.46022413  0.14141924     0.88500
C98         C  0.23717948  0.43679434  0.16299766    -0.51700
C99         C  0.22740943  0.45620226  0.18481178     0.11500
C100        C  0.24884449  0.99599757  0.17865561     0.22400
C101        C  0.26058931  0.48346511  0.11621093    -0.52400
C102        C  0.24570232  0.00117377  0.13367635     0.11600
C103        C  0.29707650  0.48733071  0.17408491    -0.52000
C104        C  0.28480396  0.00137190  0.18565906     0.12100
H105        H  0.22343005  0.40734063  0.16113308     0.16700
H106        H  0.24600043  0.01477466  0.19829670     0.02400
H107        H  0.26319062  0.48514199  0.08447573     0.17000
H108        H  0.32290872  0.49239301  0.17758677     0.16700
C109        C  0.24426905  0.22100285  0.13324797     0.88500
C110        C  0.25313077  0.25212968  0.16339669    -0.51700
C111        C  0.27971787  0.26132072  0.19132964     0.11500
C112        C  0.29593479  0.23785230  0.18592960     0.22400
C113        C  0.27759648  0.23229380  0.11487617    -0.52400
C114        C  0.30467092  0.24030945  0.14184578     0.11600
C115        C  0.23795847  0.18959787  0.15808033    -0.52000
C116        C  0.26496711  0.19825213  0.18578968     0.12100
H117        H  0.23913772  0.26586949  0.16284217     0.16700
H118        H  0.31792617  0.24500658  0.20829136     0.02400
H119        H  0.27913283  0.23206836  0.08292146     0.17000
H120        H  0.21485668  0.16262114  0.15328825     0.16700
C121        C  0.33945887  0.43277372  0.17859215    -0.14400
C122        C  0.34440486  0.41759433  0.14654740    -0.29600
H123        H  0.35592248  0.47221898  0.96941512     0.14600
H124        H  0.32943548  0.38819104  0.14085132     0.15200
C125        C  0.28868970  0.42609633  0.09248832    -0.11200
C126        C  0.27958986  0.43976999  0.11657568    -0.12800
C127        C  0.29173890  0.31842578  0.23586377    -0.11200
C128        C  0.28938903  0.29111793  0.22123048    -0.12800
C129        C  0.40244902  0.31100174  0.98829568    -0.14400
C130        C  0.38774766  0.33054479  0.98814957    -0.29600
H131        H  0.41932971  0.31431839  0.96563107     0.14600
H132        H  0.37830362  0.31501736  0.20136924     0.15200
C133        C  0.35921391  0.24962463  0.10812537    -0.11200
C134        C  0.33603969  0.24516106  0.12749435    -0.12800
C135        C  0.46558625  0.24978241  0.25803793    -0.11200
C136        C  0.48816804  0.24851976  0.24279742    -0.12800
C137        C  0.05891876  0.37193349  0.13439305    -0.14400
C138        C  0.04897910  0.35640800  0.16847684    -0.29600
H139        H  0.08615450  0.38753812  0.13028791     0.14600
H140        H  0.01456938  0.35173809  0.99100565     0.15200
C141        C  0.07197625  0.31744633  0.09540529    -0.11200
C142        C  0.05913263  0.29610140  0.12099581    -0.12800
C143        C  0.19695748  0.43749365  0.20684698    -0.11200
C144        C  0.16959698  0.41777395  0.22042149    -0.12800
C145        C  0.17415187  0.04350549  0.97726568    -0.14400
C146        C  0.16499261  0.05974180  0.95031479    -0.29600
H147        H  0.15626304  0.01544143  0.98287634     0.14600
H148        H  0.19222156  0.05304101  0.12987323     0.15200
C149        C  0.24540053  0.05334057  0.09592484    -0.11200
C150        C  0.24594632  0.03159594  0.11695826    -0.12800
C151        C  0.25865209  0.14265036  0.22257699    -0.11200
C152        C  0.26454475  0.17063720  0.20915726    -0.12800
C153        C  0.12478086  0.14265140  0.10941349    -0.14400
C154        C  0.14500846  0.14805022  0.14288791    -0.29600
H155        H  0.11551641  0.16067926  0.10475084     0.14600
H156        H  0.15317229  0.12925928  0.14876644     0.15200
C157        C  0.19432637  0.21245749  0.07977278    -0.11200
C158        C  0.21572094  0.21355545  0.10371408    -0.12800
C159        C  0.10245724  0.21328949  0.21179547    -0.11200
C160        C  0.07913700  0.21851143  0.20535689    -0.12800
C161        C  0.46257026  0.12176756  0.97003408    -0.14400
C162        C  0.42992760  0.11276611  0.96810024    -0.29600
H163        H  0.48118070  0.14035539  0.99426752     0.14600
H164        H  0.47799757  0.11658161  0.17459690     0.15200
C165        C  0.44620490  0.16528612  0.10357678    -0.11200
C166        C  0.47043138  0.18553381  0.12849002    -0.12800
C167        C  0.34291708  0.05929443  0.22002908    -0.11200
C168        C  0.31466316  0.03300695  0.20805294    -0.12800
C169        C  0.38466502  0.09093925  0.43022061     0.82300
N170        N  0.40398181  0.08892456  0.40299161    -0.76000
C171        C  0.43197283  0.11219179  0.19568422     0.84700
N172        N  0.44846573  0.13599849  0.22827040    -0.76000
C173        C  0.43070454  0.13648803  0.25839645     0.84800
N174        N  0.40029567  0.11791260  0.46067856    -0.77700
C175        C  0.13178425  0.22734956  0.42381290     0.82300
N176        N  0.15410987  0.22982513  0.45448072    -0.76000
C177        C  0.17744676  0.20473417  0.23904297     0.84700
N178        N  0.17478316  0.18366632  0.20670282    -0.76000
C179        C  0.15443270  0.20375849  0.38015110     0.84800
N180        N  0.13212324  0.21424806  0.38700134    -0.77700
C181        C  0.23546877  0.05767849  0.26871778     0.82300
N182        N  0.25156684  0.09393709  0.26382047    -0.76000
C183        C  0.25127460  0.11819770  0.43034956     0.84700
N184        N  0.23034562  0.09696473  0.39791573    -0.76000
C185        C  0.20609654  0.04361574  0.20445682     0.84800
N186        N  0.21252627  0.03290616  0.23929419    -0.77700
C187        C  0.11547738  0.38678885  0.42089923     0.82300
N188        N  0.12378820  0.37506117  0.26126297    -0.76000
C189        C  0.08939725  0.35133916  0.26487913     0.85000
N190        N  0.06545706  0.34518130  0.23456731    -0.76000
C191        C  0.07519011  0.36211217  0.20074343     0.84800
N192        N  0.09148170  0.38589837  0.39450448    -0.77700
C193        C  0.43645298  0.27012661  0.44402083     0.82300
N194        N  0.41347140  0.25812467  0.47220320    -0.76000
C195        C  0.39445947  0.26191593  0.28488491     0.84700
N196        N  0.39017995  0.27491583  0.25038550    -0.76000
C197        C  0.41502068  0.30520008  0.42023505     0.84800
N198        N  0.43685630  0.29352286  0.41864376    -0.77700
C199        C  0.28345313  0.39754295  0.26110331     0.82300
N200        N  0.30277437  0.41986818  0.23367999    -0.76000
C201        C  0.31765943  0.40901655  0.20806452     0.84700
N202        N  0.31731972  0.38822729  0.40918781    -0.76000
C203        C  0.30107242  0.36409585  0.43614105     0.84800
N204        N  0.27976901  0.36421259  0.26330715    -0.77700
O205        O  0.49183254  0.01592310  0.27867194    -0.86300
C206        C  0.08111609  0.02536602  0.15947843     0.89700
Mg207      Mg  0.42630128  0.51699205  0.28307092     1.58100
O208        O  0.05591059  0.99983664  0.27595057    -0.86000
O209        O  0.04074447  0.05933197  0.24476896    -0.73400
C210        C  0.40846972  0.34319264  0.15201804     0.94800
O211        O  0.47330005  0.03215905  0.15677621    -0.73200
O212        O  0.39449947  0.36118471  0.14695525    -0.80700
Mg213      Mg  0.04360126  0.05759585  0.13332920     1.58000
C214        C  0.02269879  0.39775957  0.31440551     0.94700
O215        O  0.07227169  0.12369118  0.29125528    -0.78900
H216        H  0.04269744  0.48827440  0.22489421    -0.04300
C217        C  0.00458199  0.42229422  0.16914276     0.89600
O218        O  0.41804421  0.46554574  0.24620505    -0.73500
O219        O  0.06597946  0.02616509  0.12832696    -0.86200
O220        O  0.03973318  0.42792089  0.29989230    -0.79000
C221        C  0.14000803  0.00644940  0.11653811     0.94800
C222        C  0.10462035  0.13871249  0.29404483     0.94700
Mg223      Mg  0.96329121  0.41239545  0.29261586     1.58000
O224        O  0.43589866  0.35120331  0.13648932    -0.78900
O225        O  0.00245410  0.44708576  0.24946000    -0.73200
O226        O  0.12973081  0.02631453  0.10313622    -0.79000
O227        O  0.48306260  0.09133334  0.10268413    -0.80700
O228        O  0.37166680  0.43503461  0.29824030    -0.79100
C229        C  0.02961589  0.47861874  0.25120266     0.89100
O230        O  0.43595665  0.43914219  0.28682881    -0.86200
O231        O  0.01207083  0.42762932  0.13478697    -0.86300
O232        O  0.47188939  0.41829666  0.18069436    -0.73400
Mg233      Mg  0.08633046  0.05814154  0.27704943     1.58000
O234        O  0.12004598  0.97215737  0.11681087    -0.80700
H235        H  0.99551209  0.05672897  0.23171158    -0.04500
O236        O  0.46448532  0.47862816  0.14190689    -0.86000
H237        H  0.46541661  0.48400274  0.20146206    -0.04300
H238        H  0.41781973  0.41991480  0.22985884    -0.04500
C239        C  0.47680133  0.49637046  0.17524006     0.89100
C240        C  0.01241765  0.05484606  0.25393277     0.89700
C241        C  0.42390129  0.44052822  0.25338058     0.89700
H242        H  0.02139471  0.41980537  0.19097073    -0.04400
O243        O  0.08230885  0.99764828  0.16620999    -0.73500
Mg244      Mg  0.42929464  0.42013160  0.14355820     1.58000
H245        H  0.09263592  0.04815862  0.18180442    -0.04500
C246        C  0.45093980  0.07509258  0.10651695     0.94700
O247        O  0.37204813  0.48477957  0.30804488    -0.80700
C248        C  0.35916719  0.45144527  0.31356786     0.94800
O249        O  0.11802070  0.12026461  0.28683283    -0.80700
Mg250      Mg  0.06527825  0.45236025  0.12436692     1.58200
O251        O  0.43014404  0.04161562  0.09620748    -0.79000
O252        O  0.99030627  0.38230048  0.31262914    -0.80700
C253        C  0.05658367  0.24747925  0.40290754     0.88500
C254        C  0.07379882  0.28127356  0.37981450    -0.51700
C255        C  0.05150587  0.28684490  0.35758868     0.11500
C256        C  0.50839274  0.25042814  0.35875836     0.22400
C257        C  0.03252442  0.25194676  0.42879008    -0.52400
C258        C  0.50710374  0.25013085  0.40466774     0.11600
C259        C  0.03209293  0.21630144  0.37128561    -0.52000
C260        C  0.50025464  0.21205546  0.34599632     0.12100
H261        H  0.10149509  0.29782311  0.37856914     0.16700
H262        H  0.49071270  0.25713028  0.34303354     0.02400
H263        H  0.03288971  0.24954785  0.46066614     0.17000
H264        H  0.03314249  0.19223738  0.36593253     0.16700
C265        C  0.25221453  0.44898637  0.33761080     0.88500
C266        C  0.21922435  0.42587643  0.35748479    -0.51700
C267        C  0.21043436  0.44551681  0.38041893     0.11500
C268        C  0.25440561  0.99239873  0.38700389     0.22400
C269        C  0.24635360  0.47516409  0.31436212    -0.52400
C270        C  0.25258317  0.99805991  0.34231746     0.11600
C271        C  0.27991608  0.47383769  0.37196807    -0.52000
C272        C  0.29158167  0.00091321  0.39632752     0.12100
H273        H  0.20397509  0.39638909  0.35360100     0.16700
H274        H  0.24839718  0.00921990  0.40594584     0.02400
H275        H  0.25023784  0.47870648  0.28307264     0.17000
H276        H  0.30538608  0.47840745  0.37510556     0.16700
C277        C  0.25489636  0.23023617  0.32920714     0.88500
C278        C  0.26289328  0.26280537  0.35662603    -0.51700
C279        C  0.28850885  0.27306708  0.38649392     0.11500
C280        C  0.30489680  0.24963422  0.38566187     0.22400
C281        C  0.28921056  0.24058256  0.31360172    -0.52400
C282        C  0.31548636  0.25018200  0.34275242     0.11600
C283        C  0.24768882  0.20036146  0.35715428    -0.52000
C284        C  0.27390696  0.21038113  0.38672260     0.12100
H285        H  0.24877720  0.27630005  0.35320293     0.16700
H286        H  0.32601953  0.25782000  0.40967982     0.02400
H287        H  0.29199060  0.23866888  0.28209046     0.17000
H288        H  0.22440794  0.17340621  0.35321836     0.16700
C289        C  0.33769518  0.44579366  0.38002626    -0.14400
C290        C  0.33470547  0.43208838  0.34271093    -0.29600
H291        H  0.35415009  0.46201982  0.18528933     0.14600
H292        H  0.31828949  0.40283227  0.33613656     0.15200
C293        C  0.26933563  0.41119151  0.28924616    -0.11200
C294        C  0.26121658  0.42721107  0.31189299    -0.12800
C295        C  0.29853953  0.32952314  0.43093551    -0.11200
C296        C  0.29664205  0.30278646  0.41553431    -0.12800
C297        C  0.40895462  0.29525574  0.18428525    -0.14400
C298        C  0.39519191  0.31530895  0.18029199    -0.29600
H299        H  0.42556681  0.29585914  0.16255641     0.14600
H300        H  0.37365607  0.33291221  0.40346233     0.15200
C301        C  0.37173106  0.25767175  0.31520594    -0.11200
C302        C  0.34804813  0.25511240  0.33220633    -0.12800
C303        C  0.46041523  0.25851667  0.43839050    -0.11200
C304        C  0.48195292  0.25394661  0.42510214    -0.12800
C305        C  0.04180346  0.38411789  0.33685383    -0.14400
C306        C  0.03218417  0.36743246  0.37086446    -0.29600
H307        H  0.06770462  0.39419361  0.32914476     0.14600
H308        H  0.02195513  0.34146500  0.17354682     0.15200
C309        C  0.07728183  0.33157710  0.29998398    -0.11200
C310        C  0.06423443  0.31216890  0.32669944    -0.12800
C311        C  0.17926769  0.42735173  0.40076948    -0.11200
C312        C  0.15137373  0.40901370  0.41335830    -0.12800
C313        C  0.17985078  0.01626855  0.17363345    -0.14400
C314        C  0.17457043  0.02566654  0.13773206    -0.29600
H315        H  0.16160029  0.98947165  0.18258922     0.14600
H316        H  0.19631247  0.08290624  0.33148209     0.15200
C317        C  0.24355150  0.04411542  0.30329891    -0.11200
C318        C  0.24760389  0.02517131  0.32540322    -0.12800
C319        C  0.26714092  0.15687624  0.42814295    -0.11200
C320        C  0.27308982  0.18437682  0.41333451    -0.12800
C321        C  0.12520703  0.17548929  0.31381957    -0.14400
C322        C  0.15031205  0.18320295  0.34248787    -0.29600
H323        H  0.11283314  0.19087281  0.31427063     0.14600
H324        H  0.16221005  0.16733091  0.34266620     0.15200
C325        C  0.20398418  0.21405889  0.27146166    -0.11200
C326        C  0.22666070  0.22043727  0.29738037    -0.12800
C327        C  0.10596143  0.23620032  0.42922665    -0.11200
C328        C  0.08268444  0.24151087  0.42316200    -0.12800
C329        C  0.43689418  0.09258907  0.12895115    -0.14400
C330        C  0.45193303  0.10933590  0.16523426    -0.29600
H331        H  0.40998564  0.08311316  0.12109899     0.14600
H332        H  0.48730361  0.12058308  0.38939717     0.15200
C333        C  0.45006818  0.16271429  0.29236230    -0.11200
C334        C  0.47154349  0.18578613  0.31748674    -0.12800
C335        C  0.34832053  0.06223317  0.42719501    -0.11200
C336        C  0.32028315  0.03477616  0.41703721    -0.12800
C337        C  0.36324324  0.08763123  0.63470411     0.82300
N338        N  0.37754024  0.09084240  0.60043649    -0.76000
C339        C  0.43849262  0.11336295  0.40534787     0.84700
N340        N  0.45381085  0.13992714  0.43545779    -0.76000
C341        C  0.43503803  0.14276699  0.46276700     0.84800
N342        N  0.38312908  0.11036510  0.66786930    -0.77700
C343        C  0.13297011  0.23509759  0.63196821     0.82300
N344        N  0.15334476  0.23591522  0.66409569    -0.76000
C345        C  0.17640732  0.21896600  0.44768176     0.84700
N346        N  0.17621700  0.20585080  0.41069060    -0.76000
C347        C  0.15558095  0.21033411  0.59029294     0.84800
N348        N  0.13447997  0.22243243  0.59579007    -0.77700
C349        C  0.23668243  0.06535322  0.46276455     0.82300
N350        N  0.25463781  0.10253198  0.46339168    -0.76000
C351        C  0.26091661  0.12636975  0.63346064     0.84700
N352        N  0.23474948  0.10479177  0.60543724    -0.76000
C353        C  0.21251421  0.06040449  0.39720844     0.84800
N354        N  0.21555642  0.04469792  0.42978612    -0.77700
C355        C  0.12413323  0.38766661  0.64174181     0.82300
N356        N  0.10532653  0.36685407  0.45314271    -0.76000
C357        C  0.07114509  0.34644418  0.45884720     0.85000
N358        N  0.04739155  0.34637259  0.43208994    -0.76000
C359        C  0.05746887  0.36583484  0.39953194     0.84800
N360        N  0.10036662  0.38487701  0.61350538    -0.77700
C361        C  0.43005848  0.25891045  0.65018247     0.82300
N362        N  0.40970260  0.25325029  0.68036604    -0.76000
C363        C  0.39147738  0.27038266  0.47409429     0.84700
N364        N  0.39252131  0.29380057  0.44800424    -0.76000
C365        C  0.40599240  0.28711488  0.61575732     0.84800
N366        N  0.42752476  0.27532958  0.61859217    -0.77700
C367        C  0.28841780  0.40485216  0.46664751     0.82300
N368        N  0.30565143  0.42908417  0.43964675    -0.76000
C369        C  0.31974828  0.42059512  0.41054979     0.84700
N370        N  0.31731704  0.38847466  0.60208591    -0.76000
C371        C  0.29972987  0.36547338  0.62919148     0.84800
N372        N  0.28604048  0.37210105  0.46488767    -0.77700
O373        O  0.49229426  0.04912459  0.48334097    -0.86300
C374        C  0.08079679  0.05386584  0.36366429     0.89700
Mg375      Mg  0.44651852  0.51125810  0.49346396     1.58100
O376        O  0.05362507  0.00957954  0.48708953    -0.86000
O377        O  0.04013369  0.06960641  0.45105261    -0.73400
C378        C  0.40435990  0.37129736  0.35931313     0.94800
O379        O  0.49548999  0.01906527  0.37408725    -0.73200
O380        O  0.38755476  0.38667340  0.35551561    -0.80700
Mg381      Mg  0.04172711  0.08409261  0.33610464     1.58000
C382        C  0.03079970  0.38240796  0.52219584     0.94700
O383        O  0.07183590  0.13594697  0.49900752    -0.78900
H384        H  0.05342803  0.46245975  0.42781943    -0.04300
C385        C  0.98437294  0.45108060  0.37215114     0.89600
O386        O  0.43510412  0.46111195  0.45140896    -0.73500
O387        O  0.06778355  0.05679849  0.33191555    -0.86200
O388        O  0.04675292  0.41099117  0.50492377    -0.79000
C389        C  0.14305724  0.03808154  0.31704028     0.94800
C390        C  0.10391170  0.14842171  0.50334121     0.94700
Mg391      Mg  0.96965768  0.39180636  0.49529019     1.58000
O392        O  0.43062243  0.38149628  0.34120258    -0.78900
O393        O  0.01029986  0.42359885  0.45092917    -0.73200
O394        O  0.13350494  0.05937157  0.30629126    -0.79000
O395        O  0.49509788  0.08208614  0.33208115    -0.80700
O396        O  0.38760500  0.43197875  0.50175145    -0.79100
C397        C  0.03844451  0.45467192  0.45301071     0.89100
O398        O  0.45025854  0.42985600  0.48719358    -0.86200
O399        O  0.99392141  0.45347247  0.33879706    -0.86300
O400        O  0.46096454  0.45840936  0.38206770    -0.73400
Mg401      Mg  0.08326224  0.06730254  0.48855933     1.58000
O402        O  0.12216460  0.00405589  0.31675572    -0.80700
H403        H  0.99831322  0.07240562  0.43292594    -0.04500
O404        O  0.44386040  0.50267982  0.33277309    -0.86000
H405        H  0.43838718  0.51293630  0.38885896    -0.04300
H406        H  0.42990427  0.41368065  0.43078013    -0.04500
C407        C  0.45310550  0.52273971  0.36361718     0.89100
C408        C  0.01235770  0.06823722  0.45687471     0.89700
C409        C  0.43833382  0.43392836  0.45537145     0.89700
H410        H  0.00057796  0.45276589  0.39684782    -0.04400
O411        O  0.08164472  0.02573701  0.36912381    -0.73500
Mg412      Mg  0.41596072  0.44601510  0.34002603     1.58000
H413        H  0.09064165  0.07512266  0.38762087    -0.04500
C414        C  0.46257981  0.06535571  0.33240194     0.94700
O415        O  0.39147161  0.48342569  0.51242961    -0.80700
C416        C  0.37547025  0.44958051  0.51522900     0.94800
O417        O  0.11542507  0.12815527  0.49700659    -0.80700
Mg418      Mg  0.04765465  0.47671812  0.33629809     1.58200
O419        O  0.44293981  0.03227831  0.31997671    -0.79000
O420        O  0.99809251  0.36415346  0.51846017    -0.80700
C421        C  0.05568828  0.25157686  0.60363501     0.88500
C422        C  0.06904776  0.28342676  0.57733272    -0.51700
C423        C  0.04387736  0.28652526  0.55776792     0.11500
C424        C  0.50553759  0.25466242  0.56466591     0.22400
C425        C  0.03474403  0.25702238  0.63297495    -0.52400
C426        C  0.50675766  0.25425284  0.61096020     0.11600
C427        C  0.02864835  0.21824112  0.57523244    -0.52000
C428        C  0.50192821  0.21886136  0.55105000     0.12100
H429        H  0.09584796  0.29976282  0.57149483     0.16700
H430        H  0.48483700  0.25785376  0.55061333     0.02400
H431        H  0.03847785  0.25602277  0.66489619     0.17000
H432        H  0.03030905  0.19466839  0.56947892     0.16700
C433        C  0.25489363  0.44952685  0.54767212     0.88500
C434        C  0.22511496  0.42679691  0.57262806    -0.51700
C435        C  0.21634004  0.44668564  0.59536170     0.11500
C436        C  0.24022405  0.98807179  0.57902816     0.22400
C437        C  0.24379800  0.47115917  0.52318115    -0.52400
C438        C  0.24139322  0.99537377  0.53436935     0.11600
C439        C  0.28455005  0.47839675  0.57764940    -0.52000
C440        C  0.27700713  0.99730115  0.59213952     0.12100
H441        H  0.21183067  0.39742690  0.57199927     0.16700
H442        H  0.23227416  0.00363130  0.59704724     0.02400
H443        H  0.24460804  0.47201616  0.49111504     0.17000
H444        H  0.31061889  0.48442066  0.57852683     0.16700
C445        C  0.25128985  0.23045701  0.53132999     0.88500
C446        C  0.26123312  0.26388358  0.55812689    -0.51700
C447        C  0.28922889  0.27562118  0.58465844     0.11500
C448        C  0.30610851  0.25286701  0.58102026     0.22400
C449        C  0.28335409  0.24022280  0.51076310    -0.52400
C450        C  0.31201665  0.25107904  0.53636415     0.11600
C451        C  0.24753622  0.20203969  0.56003557    -0.52000
C452        C  0.27657380  0.21393193  0.58611490     0.12100
H453        H  0.24642297  0.27673884  0.55710430     0.16700
H454        H  0.32924475  0.26237444  0.60221110     0.02400
H455        H  0.28294707  0.23698829  0.47865192     0.17000
H456        H  0.22462013  0.17496041  0.55912033     0.16700
C457        C  0.34128798  0.44511699  0.57086059    -0.14400
C458        C  0.34600334  0.43031380  0.53827281    -0.29600
H459        H  0.35480891  0.47467017  0.38857237     0.14600
H460        H  0.33130977  0.40093061  0.53253932     0.15200
C461        C  0.27400331  0.41517994  0.49767418    -0.11200
C462        C  0.26452901  0.42858181  0.52183327    -0.12800
C463        C  0.29860393  0.33167764  0.62780884    -0.11200
C464        C  0.29816562  0.30543756  0.61368873    -0.12800
C465        C  0.41734926  0.33072957  0.39191136    -0.14400
C466        C  0.39564330  0.34248911  0.38650147    -0.29600
H467        H  0.43916706  0.34065874  0.37453694     0.14600
H468        H  0.37684981  0.32660546  0.59753977     0.15200
C469        C  0.36613802  0.25923396  0.50259341    -0.11200
C470        C  0.34272308  0.25506294  0.52119339    -0.12800
C471        C  0.45654446  0.25076957  0.64942772    -0.11200
C472        C  0.47997418  0.25136441  0.63421547    -0.12800
C473        C  0.05139238  0.37552740  0.55103520    -0.14400
C474        C  0.04090156  0.36136543  0.58566355    -0.29600
H475        H  0.07828339  0.38784101  0.54601650     0.14600
H476        H  0.00669701  0.35809748  0.37955955     0.15200
C477        C  0.06000622  0.32498157  0.49338353    -0.11200
C478        C  0.05125640  0.30749173  0.52259151    -0.12800
C479        C  0.18718422  0.42873102  0.61943576    -0.11200
C480        C  0.16024715  0.41035874  0.63432520    -0.12800
C481        C  0.18558800  0.03835308  0.36432007    -0.14400
C482        C  0.17851544  0.05430994  0.33504555    -0.29600
H483        H  0.16744251  0.00998115  0.36852915     0.14600
H484        H  0.19235391  0.09240875  0.54841586     0.15200
C485        C  0.23946235  0.04652088  0.49600510    -0.11200
C486        C  0.23951072  0.02458293  0.51722331    -0.12800
C487        C  0.27719572  0.16473718  0.62937977    -0.11200
C488        C  0.27997932  0.19040622  0.61308090    -0.12800
C489        C  0.12660902  0.18455165  0.52369601    -0.14400
C490        C  0.15079176  0.18968878  0.55258863    -0.29600
H491        H  0.11650563  0.20210896  0.52399057     0.14600
H492        H  0.16048109  0.17174945  0.55285728     0.15200
C493        C  0.19950386  0.21946654  0.47927780    -0.11200
C494        C  0.22113334  0.22078986  0.50313813    -0.12800
C495        C  0.10721093  0.24434151  0.63412626    -0.11200
C496        C  0.08362916  0.24814458  0.62336234    -0.12800
C497        C  0.44562578  0.08280421  0.34844391    -0.14400
C498        C  0.46007469  0.10779969  0.37952001    -0.29600
H499        H  0.41815012  0.06950339  0.33958680     0.14600
H500        H  0.40774364  0.09201079  0.53879099     0.15200
C501        C  0.45369303  0.17017366  0.49561787    -0.11200
C502        C  0.47468846  0.19263040  0.52138137    -0.12800
C503        C  0.32816827  0.05673611  0.63414528    -0.11200
C504        C  0.30227685  0.02880966  0.61932855    -0.12800
C505        C  0.38787413  0.09185452  0.83450634     0.82300
N506        N  0.40369154  0.08416270  0.80726882    -0.76000
C507        C  0.41099533  0.11575495  0.59792999     0.84700
N508        N  0.43085925  0.13843757  0.63035871    -0.76000
C509        C  0.41717202  0.13653411  0.66516214     0.84800
N510        N  0.40722858  0.11990806  0.86315431    -0.77700
C511        C  0.12395341  0.22045223  0.82720597     0.82300
N512        N  0.15038142  0.22737452  0.85473164    -0.76000
C513        C  0.17515338  0.22398861  0.65864023     0.84700
N514        N  0.17570291  0.21083864  0.62185589    -0.76000
C515        C  0.14144217  0.19263026  0.78212804     0.84800
N516        N  0.11996196  0.20335511  0.79134300    -0.77700
C517        C  0.24892107  0.07443616  0.66627480     0.82300
N518        N  0.26832732  0.11143972  0.66456750    -0.76000
C519        C  0.26103273  0.12948156  0.83992894     0.84700
N520        N  0.24581493  0.11027355  0.80463675    -0.76000
C521        C  0.21524281  0.06859196  0.60712851     0.84800
N522        N  0.22220903  0.05340120  0.63776891    -0.77700
C523        C  0.12702811  0.38684497  0.83528674     0.82300
N524        N  0.11332240  0.36833693  0.67452910    -0.76000
C525        C  0.07867224  0.34711400  0.67851515     0.85000
N526        N  0.05547796  0.34523481  0.64980216    -0.76000
C527        C  0.06616355  0.36377297  0.61711524     0.84800
N528        N  0.10223780  0.38530994  0.80948041    -0.77700
C529        C  0.43408058  0.25809682  0.84957876     0.82300
N530        N  0.41298135  0.25005271  0.87961239    -0.76000
C531        C  0.38704305  0.26480991  0.67743348     0.84700
N532        N  0.38588105  0.28232511  0.64532872    -0.76000
C533        C  0.40921338  0.28713129  0.81832465     0.84800
N534        N  0.43159129  0.27625446  0.81954051    -0.77700
C535        C  0.28603091  0.40724297  0.65403024     0.82300
N536        N  0.30476594  0.43048390  0.62683987    -0.76000
C537        C  0.31986301  0.42069824  0.60023182     0.84700
N538        N  0.31786750  0.38668910  0.80297003    -0.76000
C539        C  0.30297026  0.36724847  0.83360949     0.84800
N540        N  0.28345100  0.37445995  0.65517476    -0.77700
O541        O  0.51560701  0.02587504  0.69128136    -0.86300
C542        C  0.07229461  0.06503802  0.57347007     0.89700
Mg543      Mg  0.42557658  0.49506160  0.67025780     1.58100
O544        O  0.07084967  0.97806856  0.67974744    -0.86000
O545        O  0.05956316  0.03840004  0.65351910    -0.73400
C546        C  0.40918334  0.35657706  0.55015322     0.94800
O547        O  0.49107455  0.05218530  0.57859333    -0.73200
O548        O  0.39575932  0.37508370  0.54497605    -0.80700
Mg549      Mg  0.03482635  0.09649146  0.54082142     1.58000
C550        C  0.02947584  0.39707420  0.73763737     0.94700
O551        O  0.09270206  0.10203119  0.70324588    -0.78900
H552        H  0.04545628  0.46636347  0.63556408    -0.04300
C553        C  0.98984976  0.42870985  0.57261894     0.89600
O554        O  0.42257456  0.44400916  0.63967092    -0.73500
O555        O  0.06009957  0.06708930  0.54079858    -0.86200
O556        O  0.04612553  0.42764620  0.72392655    -0.79000
C557        C  0.13880586  0.04783734  0.53586610     0.94800
C558        C  0.12469449  0.11549720  0.71108110     0.94700
Mg559      Mg  0.96417750  0.40087159  0.70729033     1.58000
O560        O  0.43676657  0.36445233  0.53523632    -0.78900
O561        O  0.00354114  0.42922263  0.66198920    -0.73200
O562        O  0.12949908  0.06872751  0.52269483    -0.79000
O563        O  0.50121768  0.11758433  0.53400486    -0.80700
O564        O  0.37288987  0.41522201  0.68920045    -0.79100
C565        C  0.03018812  0.46080015  0.66025548     0.89100
O566        O  0.44175964  0.42377707  0.68674466    -0.86200
O567        O  0.99989346  0.43439718  0.53957197    -0.86300
O568        O  0.47191130  0.43324324  0.58206972    -0.73400
Mg569      Mg  0.10271154  0.03504241  0.68812326     1.58000
O570        O  0.11769946  0.01411908  0.53709220    -0.80700
H571        H  0.01598238  0.03712126  0.63632881    -0.04500
O572        O  0.46169886  0.49138923  0.54090202    -0.86000
H573        H  0.45535972  0.49689481  0.59745112    -0.04300
H574        H  0.42584795  0.39943268  0.63137089    -0.04500
C575        C  0.47106815  0.50867942  0.57359174     0.89100
C576        C  0.03141829  0.03558540  0.66027806     0.89700
C577        C  0.43015251  0.42140374  0.65179691     0.89700
H578        H  0.00289268  0.42140237  0.59390939    -0.04400
O579        O  0.07424246  0.03775077  0.58022952    -0.73500
Mg580      Mg  0.43017144  0.43441135  0.54116797     1.58000
H581        H  0.08094508  0.08655232  0.59683994    -0.04500
C582        C  0.46965453  0.10304270  0.53931198     0.94700
O583        O  0.36960174  0.46301312  0.68741164    -0.80700
C584        C  0.35870434  0.43176946  0.69910437     0.94800
O585        O  0.13726342  0.09645084  0.70351333    -0.80700
Mg586      Mg  0.05442323  0.45993523  0.53924568     1.58200
O587        O  0.44710748  0.06990861  0.52795576    -0.79000
O588        O  0.99695796  0.38044811  0.73700781    -0.80700
C589        C  0.04722057  0.23828215  0.81076261     0.88500
C590        C  0.06305341  0.27054084  0.78549231    -0.51700
C591        C  0.04008339  0.27693475  0.76651492     0.11500
C592        C  0.50639470  0.24789399  0.76222737     0.22400
C593        C  0.02747257  0.24602295  0.84010483    -0.52400
C594        C  0.50818204  0.24721783  0.80846129     0.11600
C595        C  0.01895316  0.20613005  0.78203495    -0.52000
C596        C  0.49664233  0.20923468  0.74786012     0.12100
H597        H  0.09030926  0.28614282  0.78136935     0.16700
H598        H  0.48808480  0.25503505  0.74932804     0.02400
H599        H  0.03109454  0.24537614  0.87207890     0.17000
H600        H  0.01811396  0.18110306  0.77644459     0.16700
C601        C  0.25759449  0.45349103  0.74051071     0.88500
C602        C  0.22840346  0.42935781  0.76548174    -0.51700
C603        C  0.22108800  0.44809171  0.79205378     0.11500
C604        C  0.25705893  0.00332832  0.78686010     0.22400
C605        C  0.24695262  0.47778667  0.72122024    -0.52400
C606        C  0.25663732  0.00691987  0.74117268     0.11600
C607        C  0.28853864  0.47984166  0.77075775    -0.52000
C608        C  0.29324647  0.01012719  0.79859520     0.12100
H609        H  0.21375239  0.39989033  0.76126380     0.16700
H610        H  0.25207175  0.02200600  0.80362247     0.02400
H611        H  0.24683849  0.48120764  0.68948937     0.17000
H612        H  0.31432420  0.48605805  0.76806123     0.16700
C613        C  0.25071314  0.23426799  0.74092910     0.88500
C614        C  0.26283810  0.26810230  0.76825331    -0.51700
C615        C  0.29123361  0.27841579  0.79363188     0.11500
C616        C  0.30626997  0.25425467  0.78844855     0.22400
C617        C  0.28176329  0.24251407  0.71887720    -0.52400
C618        C  0.31081902  0.25228384  0.74333993     0.11600
C619        C  0.24658607  0.20544714  0.76919622    -0.52000
C620        C  0.27577111  0.21623032  0.79429284     0.12100
H621        H  0.24913494  0.28214434  0.76862562     0.16700
H622        H  0.32959406  0.26261881  0.80887948     0.02400
H623        H  0.28042404  0.23934856  0.68661467     0.17000
H624        H  0.22334621  0.17896058  0.76922567     0.16700
C625        C  0.33385942  0.43577413  0.76066840    -0.14400
C626        C  0.33431511  0.41631422  0.72916977    -0.29600
H627        H  0.35610559  0.47430986  0.57806028     0.14600
H628        H  0.32018932  0.38688961  0.72891966     0.15200
C629        C  0.27287736  0.41969267  0.68458360    -0.11200
C630        C  0.26514622  0.43349583  0.71042729    -0.12800
C631        C  0.30328390  0.33468653  0.83686076    -0.11200
C632        C  0.30210647  0.30796746  0.82347941    -0.12800
C633        C  0.40882071  0.30802066  0.58203773    -0.14400
C634        C  0.39492686  0.32793981  0.57763891    -0.29600
H635        H  0.42671702  0.30987896  0.56143988     0.14600
H636        H  0.37645366  0.32406061  0.80581683     0.15200
C637        C  0.36349646  0.25881915  0.70722661    -0.11200
C638        C  0.34098068  0.25602250  0.72670038    -0.12800
C639        C  0.46029322  0.24933820  0.84705546    -0.11200
C640        C  0.48306908  0.24798131  0.83227418    -0.12800
C641        C  0.04973441  0.38325541  0.75600528    -0.14400
C642        C  0.04184038  0.36583328  0.78931886    -0.29600
H643        H  0.07531668  0.39430106  0.74667122     0.14600
H644        H  0.01431458  0.34976637  0.59161090     0.15200
C645        C  0.06538831  0.32473398  0.71167116    -0.11200
C646        C  0.05180438  0.30354970  0.73685713    -0.12800
C647        C  0.19068514  0.42878062  0.81400716    -0.11200
C648        C  0.16292947  0.40975832  0.82702081    -0.12800
C649        C  0.18370442  0.04731040  0.57933019    -0.14400
C650        C  0.17459180  0.06400590  0.55285088    -0.29600
H651        H  0.16569329  0.01916643  0.58450990     0.14600
H652        H  0.18581816  0.00177733  0.77681286     0.15200
C653        C  0.25515709  0.05642869  0.69822559    -0.11200
C654        C  0.25613829  0.03566263  0.72070853    -0.12800
C655        C  0.27454529  0.16757260  0.83959968    -0.11200
C656        C  0.27773519  0.19294508  0.82254862    -0.12800
C657        C  0.14532078  0.14962733  0.73665251    -0.14400
C658        C  0.13205510  0.16970204  0.74472317    -0.29600
H659        H  0.16766046  0.15396911  0.75479797     0.14600
H660        H  0.10933015  0.16465446  0.72634128     0.15200
C661        C  0.19789869  0.22454700  0.69099206    -0.11200
C662        C  0.21995700  0.22576496  0.71419855    -0.12800
C663        C  0.09832817  0.22888744  0.83471941    -0.11200
C664        C  0.07412644  0.23265061  0.82890331    -0.12800
C665        C  0.45919534  0.12333253  0.56362189    -0.14400
C666        C  0.42581901  0.11171882  0.56276066    -0.29600
H667        H  0.47771506  0.14291927  0.58728525     0.14600
H668        H  0.43450809  0.06759994  0.75872323     0.15200
C669        C  0.44061688  0.16107162  0.69892765    -0.11200
C670        C  0.46517350  0.18319097  0.72216796    -0.12800
C671        C  0.35073699  0.06803629  0.83257160    -0.11200
C672        C  0.32185196  0.04263814  0.82118413    -0.12800
C673        C  0.36769877  0.09253706  0.03935827     0.82300
N674        N  0.38199365  0.09456909  0.00539884    -0.76000
C675        C  0.43835387  0.10360083  0.80773150     0.84700
N676        N  0.45784373  0.13153486  0.83620292    -0.76000
C677        C  0.44238227  0.14007939  0.86369847     0.84800
N678        N  0.38785536  0.11574860  0.07222729    -0.77700
C679        C  0.12586221  0.22215776  0.03089776     0.82300
N680        N  0.14821871  0.22262084  0.05992815    -0.76000
C681        C  0.17232189  0.21650949  0.84580571     0.84700
N682        N  0.16747769  0.19880279  0.80958878    -0.76000
C683        C  0.14766053  0.20174631  0.98270802     0.84800
N684        N  0.12590260  0.21186012  0.99285378    -0.77700
C685        C  0.24210890  0.07480576  0.86998811     0.82300
N686        N  0.25935180  0.11198715  0.87331078    -0.76000
C687        C  0.25103970  0.12293074  0.03118952     0.84700
N688        N  0.22482351  0.10130570  0.00322286    -0.76000
C689        C  0.22853384  0.07391908  0.80117029     0.84800
N690        N  0.22620821  0.05595053  0.83399563    -0.77700
C691        C  0.12629469  0.38814801  0.02761808     0.82300
N692        N  0.11766405  0.36724530  0.86795932    -0.76000
C693        C  0.08358003  0.34653333  0.87428404     0.85000
N694        N  0.05934367  0.34576598  0.84821356    -0.76000
C695        C  0.06840382  0.36481937  0.81564546     0.84800
N696        N  0.10086198  0.38626437  0.00276377    -0.77700
C697        C  0.42778585  0.25898092  0.04711687     0.82300
N698        N  0.40683248  0.24917695  0.07739362    -0.76000
C699        C  0.38989757  0.26114428  0.87819652     0.84700
N700        N  0.38863935  0.27991847  0.84771313    -0.76000
C701        C  0.40198091  0.28851687  0.01939593     0.84800
N702        N  0.42472328  0.27815536  0.01869053    -0.77700
C703        C  0.28592554  0.40789679  0.85088192     0.82300
N704        N  0.30191633  0.42780346  0.82011951    -0.76000
C705        C  0.31724984  0.41653818  0.79549556     0.84700
N706        N  0.32285141  0.39004162  0.00209649    -0.76000
C707        C  0.30996393  0.36940405  0.03267411     0.84800
N708        N  0.28607443  0.37717310  0.85727886    -0.77700
O709        O  0.49458322  0.04829714  0.88705396    -0.86300
C710        C  0.09124756  0.02614383  0.77265642     0.89700
Mg711      Mg  0.42690659  0.49971814  0.87205118     1.58100
O712        O  0.04369469  0.00177317  0.88576958    -0.86000
O713        O  0.02915675  0.05969032  0.84640867    -0.73400
C714        C  0.40624493  0.35650839  0.75808913     0.94800
O715        O  0.51971615  0.02211024  0.78403300    -0.73200
O716        O  0.38908369  0.37090841  0.75021909    -0.80700
Mg717      Mg  0.05733310  0.06297258  0.74518414     1.58000
C718        C  0.02614454  0.39034035  0.92580224     0.94700
O719        O  0.06020726  0.12760253  0.89087516    -0.78900
H720        H  0.04597804  0.46659285  0.82967755    -0.04300
C721        C  0.98182176  0.45681782  0.77786476     0.89600
O722        O  0.42158094  0.44699024  0.84291302    -0.73500
O723        O  0.07964410  0.03100913  0.74102865    -0.86200
O724        O  0.04186941  0.41957232  0.90950073    -0.79000
C725        C  0.15310208  0.00774643  0.73097754     0.94800
C726        C  0.09238269  0.14058656  0.89625396     0.94700
Mg727      Mg  0.96413822  0.40038176  0.90160581     1.58000
O728        O  0.43493218  0.36774404  0.74475530    -0.78900
O729        O  0.00300614  0.42922964  0.85432753    -0.73200
O730        O  0.14525312  0.03078556  0.72164085    -0.79000
O731        O  0.52833120  0.09423484  0.75102077    -0.80700
O732        O  0.37212742  0.42171736  0.89027363    -0.79100
C733        C  0.03089140  0.46032912  0.85470451     0.89100
O734        O  0.44080267  0.42797146  0.89113011    -0.86200
O735        O  0.99137780  0.45184244  0.74557481    -0.86300
O736        O  0.45904569  0.44297793  0.78141480    -0.73400
Mg737      Mg  0.07270796  0.05974686  0.88475159     1.58000
O738        O  0.13208143  0.97395548  0.72338325    -0.80700
H739        H  0.98441056  0.05471030  0.82445248    -0.04500
O740        O  0.44030714  0.48493857  0.72558255    -0.86000
H741        H  0.42632912  0.49504576  0.77661625    -0.04300
H742        H  0.42406310  0.40171841  0.83669575    -0.04500
C743        C  0.44449225  0.50525986  0.75454551     0.89100
C744        C  0.00009665  0.05567023  0.85015486     0.89700
C745        C  0.42893110  0.42452505  0.85612829     0.89700
H746        H  0.00015459  0.47054227  0.80293811    -0.04400
O747        O  0.09212462  0.99775600  0.77611695    -0.73500
Mg748      Mg  0.41581777  0.42904227  0.73483683     1.58000
H749        H  0.10031397  0.04608877  0.79788191    -0.04500
C750        C  0.49701643  0.08107552  0.75627066     0.94700
O751        O  0.37073406  0.47062498  0.88880733    -0.80700
C752        C  0.35875827  0.43911036  0.90018709     0.94800
O753        O  0.10427124  0.12062292  0.89039845    -0.80700
Mg754      Mg  0.04723412  0.47801751  0.74634488     1.58200
O755        O  0.47396820  0.04861909  0.74362228    -0.79000
O756        O  0.99381300  0.37429891  0.92636530    -0.80700
C757        C  0.05100804  0.24017733  0.00950667     0.88500
C758        C  0.06873375  0.27570672  0.98938371    -0.51700
C759        C  0.04676521  0.28188630  0.96732504     0.11500
C760        C  0.51151169  0.25406594  0.96617225     0.22400
C761        C  0.02582085  0.24176115  0.03529677    -0.52400
C762        C  0.50654808  0.25150714  0.01156208     0.11600
C763        C  0.02804757  0.21092567  0.97524098    -0.52000
C764        C  0.50806228  0.21796325  0.95322361     0.12100
H765        H  0.09651076  0.29242779  0.98888752     0.16700
H766        H  0.49337463  0.25894242  0.94828544     0.02400
H767        H  0.02488476  0.23653884  0.06648377     0.17000
H768        H  0.03006905  0.18777483  0.96772602     0.16700
C769        C  0.25595667  0.45648481  0.93188789     0.88500
C770        C  0.22595606  0.43366740  0.95638022    -0.51700
C771        C  0.21889204  0.45346987  0.98172393     0.11500
C772        C  0.24324492  0.99414923  0.98377945     0.22400
C773        C  0.24683104  0.48105878  0.91052491    -0.52400
C774        C  0.24332522  0.00295703  0.93968422     0.11600
C775        C  0.28659958  0.48247577  0.96245642    -0.52000
C776        C  0.28049583  0.00383357  0.99510392     0.12100
H777        H  0.21111579  0.40416661  0.95341787     0.16700
H778        H  0.23531444  0.00870020  0.00349726     0.02400
H779        H  0.24743413  0.48346068  0.87867216     0.17000
H780        H  0.31191958  0.48662278  0.96164699     0.16700
C781        C  0.25193612  0.23388925  0.92865558     0.88500
C782        C  0.26292912  0.26708033  0.95680784    -0.51700
C783        C  0.28970396  0.27605558  0.98450645     0.11500
C784        C  0.30397141  0.25093770  0.98101340     0.22400
C785        C  0.28470601  0.24251112  0.91011719    -0.52400
C786        C  0.31176001  0.25027584  0.93717227     0.11600
C787        C  0.24494212  0.20367131  0.95622651    -0.52000
C788        C  0.27240291  0.21281334  0.98369119     0.12100
H789        H  0.25008475  0.28200433  0.95544337     0.16700
H790        H  0.32582736  0.25806525  0.00333489     0.02400
H791        H  0.28597369  0.24134852  0.87829821     0.17000
H792        H  0.22092557  0.17736558  0.95369404     0.16700
C793        C  0.33890746  0.44287013  0.96541580    -0.14400
C794        C  0.33467073  0.42435344  0.93058962    -0.29600
H795        H  0.34889406  0.46519428  0.76256089     0.14600
H796        H  0.31839139  0.39490866  0.92858087     0.15200
C797        C  0.27214067  0.42148749  0.87910584    -0.11200
C798        C  0.26361460  0.43552079  0.90356591    -0.12800
C799        C  0.30585035  0.33419504  0.02959902    -0.11200
C800        C  0.30115264  0.30625339  0.01402434    -0.12800
C801        C  0.41045522  0.30913489  0.78646666    -0.14400
C802        C  0.39456534  0.32744831  0.78489454    -0.29600
H803        H  0.42816218  0.31285012  0.76472128     0.14600
H804        H  0.37042114  0.32771835  0.00986772     0.15200
C805        C  0.36575960  0.25382804  0.90753817    -0.11200
C806        C  0.34235013  0.25204971  0.92432918    -0.12800
C807        C  0.45443041  0.25108749  0.04306011    -0.11200
C808        C  0.47815841  0.25059982  0.02978308    -0.12800
C809        C  0.04719928  0.37848491  0.94656014    -0.14400
C810        C  0.03983545  0.36248856  0.98085396    -0.29600
H811        H  0.07285500  0.38971088  0.93739100     0.14600
H812        H  0.01674135  0.35570780  0.79970604     0.15200
C813        C  0.07222740  0.32546605  0.90861408    -0.11200
C814        C  0.05975809  0.30639242  0.93572307    -0.12800
C815        C  0.18918838  0.43442609  0.00536460    -0.11200
C816        C  0.16211443  0.41380287  0.01945321    -0.12800
C817        C  0.20770682  0.05599638  0.76324342    -0.14400
C818        C  0.18493600  0.02038477  0.75693990    -0.29600
H819        H  0.20690513  0.07384585  0.74206387     0.14600
H820        H  0.18263463  0.08803579  0.94533098     0.15200
C821        C  0.24122129  0.05449952  0.90343519    -0.11200
C822        C  0.24060887  0.03225749  0.92457693    -0.12800
C823        C  0.26808111  0.16117993  0.02659698    -0.11200
C824        C  0.27261469  0.18744541  0.01026348    -0.12800
C825        C  0.11469987  0.17661234  0.91747877    -0.14400
C826        C  0.14155220  0.18309503  0.94306259    -0.29600
H827        H  0.10319032  0.19262831  0.92123250     0.14600
H828        H  0.15303651  0.16703199  0.93953070     0.15200
C829        C  0.19959430  0.22170003  0.87516749    -0.11200
C830        C  0.22269170  0.22570135  0.89902801    -0.12800
C831        C  0.09996090  0.22982371  0.03857826    -0.11200
C832        C  0.07639554  0.23410629  0.03072739    -0.12800
C833        C  0.48675998  0.10274497  0.77932869    -0.14400
C834        C  0.45318122  0.09081312  0.77912923    -0.29600
H835        H  0.50611664  0.12609958  0.79902454     0.14600
H836        H  0.41160217  0.09379401  0.94380224     0.15200
C837        C  0.46376827  0.16916796  0.89464223    -0.11200
C838        C  0.48348790  0.19226595  0.92087594    -0.12800
C839        C  0.33217463  0.06221651  0.03862786    -0.11200
C840        C  0.30604586  0.03471524  0.02313472    -0.12800
C841        C  0.37734883  0.59546004  0.22886510     0.82300
N842        N  0.39170508  0.58996472  0.19823593    -0.76000
C843        C  0.42766387  0.61917022  0.99457500     0.84700
N844        N  0.44398101  0.64152203  0.02814116    -0.76000
C845        C  0.42638972  0.64004275  0.05921097     0.84800
N846        N  0.39767187  0.62302474  0.25781377    -0.77700
C847        C  0.12606572  0.70580798  0.20986199     0.82300
N848        N  0.14841219  0.71165880  0.24230017    -0.76000
C849        C  0.16315962  0.70799041  0.03897741     0.84700
N850        N  0.15943452  0.69017350  0.00331377    -0.76000
C851        C  0.14649446  0.67466971  0.17442716     0.84800
N852        N  0.12538965  0.68744515  0.17630788    -0.77700
C853        C  0.23677811  0.56673519  0.06346855     0.82300
N854        N  0.25327532  0.60351456  0.06060526    -0.76000
C855        C  0.24461120  0.61061439  0.22395175     0.84700
N856        N  0.22398878  0.58553181  0.19360698    -0.76000
C857        C  0.20200210  0.55609305  0.00370301     0.84800
N858        N  0.21078872  0.54336814  0.03534477    -0.77700
C859        C  0.13196023  0.89371508  0.23039531     0.82300
N860        N  0.11403236  0.86397976  0.05144341    -0.76000
C861        C  0.07954616  0.84228807  0.05587678     0.85000
N862        N  0.05627034  0.84444391  0.03072039    -0.76000
C863        C  0.06683337  0.86748402  0.00123263     0.84800
N864        N  0.10690428  0.88665442  0.20137504    -0.77700
C865        C  0.42793394  0.75527831  0.24361134     0.82300
N866        N  0.40761570  0.74577003  0.27460707    -0.76000
C867        C  0.37830899  0.76205424  0.06116301     0.84700
N868        N  0.37423508  0.77814374  0.02922724    -0.76000
C869        C  0.39632552  0.77756837  0.21240643     0.84800
N870        N  0.42163134  0.77069398  0.21307540    -0.77700
C871        C  0.28021249  0.90170464  0.04791166     0.82300
N872        N  0.30084783  0.92685708  0.02363566    -0.76000
C873        C  0.31514431  0.91797228  0.99533599     0.84700
N874        N  0.31585103  0.87964761  0.19673735    -0.76000
C875        C  0.30227470  0.85890794  0.22709777     0.84800
N876        N  0.27455578  0.86754785  0.04448568    -0.77700
O877        O  0.49507845  0.52584058  0.08351257    -0.86300
C878        C  0.05812883  0.54834816  0.96132441     0.89700
Mg879      Mg  0.42461033  0.99119703  0.06825515     1.58100
O880        O  0.05396395  0.47124145  0.07200738    -0.86000
O881        O  0.03501556  0.52588248  0.03917115    -0.73400
C882        C  0.39803269  0.85949336  0.94277811     0.94800
O883        O  0.47557620  0.54332139  0.96058237    -0.73200
O884        O  0.38522630  0.87886701  0.93905908    -0.80700
Mg885      Mg  0.01732391  0.57331155  0.91972642     1.58000
C886        C  0.03333370  0.87029760  0.10588190     0.94700
O887        O  0.06957842  0.59486242  0.07963935    -0.78900
H888        H  0.05217340  0.95373151  0.01520326    -0.04300
C889        C  0.98875098  0.95788381  0.97882013     0.89600
O890        O  0.41753208  0.93799118  0.03773413    -0.73500
O891        O  0.04364544  0.54464472  0.92786351    -0.86200
O892        O  0.04707994  0.89714410  0.08565006    -0.79000
C893        C  0.12557177  0.52824503  0.93050373     0.94800
C894        C  0.10182605  0.61004293  0.08407436     0.94700
Mg895      Mg  0.97402799  0.88258671  0.08989327     1.58000
O896        O  0.42662713  0.86868856  0.92977279    -0.78900
O897        O  0.01102164  0.91560419  0.04185943    -0.73200
O898        O  0.11533916  0.54735486  0.91425263    -0.79000
O899        O  0.48217413  0.60027290  0.90417578    -0.80700
O900        O  0.36729046  0.91215862  0.08591893    -0.79100
C901        C  0.03979497  0.94594528  0.04232358     0.89100
O902        O  0.43493670  0.91649926  0.08513660    -0.86200
O903        O  0.99850856  0.95849929  0.94565694    -0.86300
O904        O  0.45933915  0.93780603  0.97990057    -0.73400
Mg905      Mg  0.08270995  0.52907573  0.07055314     1.58000
O906        O  0.10520215  0.49510270  0.93563369    -0.80700
H907        H  0.98948486  0.52170116  0.02681754    -0.04500
O908        O  0.45272283  0.99727913  0.94008463    -0.86000
H909        H  0.44468792  0.00051498  0.99670031    -0.04300
H910        H  0.41795433  0.89157841  0.03004570    -0.04500
C911        C  0.46124300  0.01324847  0.97364190     0.89100
C912        C  0.00805438  0.52402234  0.04914259     0.89700
C913        C  0.42346551  0.91425502  0.05018787     0.89700
H914        H  0.00561428  0.96325711  0.00464341    -0.04400
O915        O  0.06323063  0.52416956  0.97308856    -0.73500
Mg916      Mg  0.42006951  0.93946197  0.93688489     1.58000
H917        H  0.06646529  0.57238537  0.98083360    -0.04500
C918        C  0.44991004  0.58321148  0.90748638     0.94700
O919        O  0.36854048  0.96266099  0.08590740    -0.80700
C920        C  0.35488877  0.93048855  0.09601780     0.94800
O921        O  0.11521174  0.59168284  0.07687428    -0.80700
Mg922      Mg  0.05260540  0.98367227  0.94095931     1.58200
O923        O  0.43023624  0.54948610  0.89802055    -0.79000
O924        O  0.00074206  0.85074909  0.10356459    -0.80700
C925        C  0.05321667  0.73155133  0.18696626     0.88500
C926        C  0.06885500  0.76566857  0.16423584    -0.51700
C927        C  0.04557917  0.77266756  0.14695210     0.11500
C928        C  0.50617484  0.75142910  0.15859549     0.22400
C929        C  0.03330801  0.73679106  0.21836382    -0.52400
C930        C  0.50793490  0.75193105  0.20485139     0.11600
C931        C  0.02510546  0.70113998  0.15658574    -0.52000
C932        C  0.49876491  0.71354367  0.14567854     0.12100
H933        H  0.09583684  0.78099694  0.15892788     0.16700
H934        H  0.48675814  0.75666449  0.14478433     0.02400
H935        H  0.03645639  0.73307201  0.24966448     0.17000
H936        H  0.02458134  0.67667620  0.14784698     0.16700
C937        C  0.25667657  0.95253617  0.13205419     0.88500
C938        C  0.22720873  0.93245684  0.15792650    -0.51700
C939        C  0.22267664  0.95468871  0.18263098     0.11500
C940        C  0.25101628  0.49809353  0.18239204     0.22400
C941        C  0.24902270  0.97773916  0.10963590    -0.52400
C942        C  0.25172928  0.50387622  0.13733678     0.11600
C943        C  0.28865827  0.97834682  0.16126327    -0.52000
C944        C  0.28784115  0.50754283  0.19546388     0.12100
H945        H  0.21101028  0.90302226  0.15653676     0.16700
H946        H  0.24372216  0.51440311  0.19971181     0.02400
H947        H  0.24872868  0.97873531  0.07749928     0.17000
H948        H  0.31313511  0.98056240  0.16027569     0.16700
C949        C  0.24029692  0.72255461  0.12276361     0.88500
C950        C  0.25107689  0.75476862  0.15245851    -0.51700
C951        C  0.27877404  0.76401393  0.17877348     0.11500
C952        C  0.29390947  0.73990724  0.17251834     0.22400
C953        C  0.27251177  0.73271257  0.10235241    -0.52400
C954        C  0.30058424  0.74127258  0.12785516     0.11600
C955        C  0.23484137  0.69180111  0.14850940    -0.52000
C956        C  0.26287925  0.70088500  0.17483884     0.12100
H957        H  0.23775360  0.76919571  0.15271334     0.16700
H958        H  0.31662776  0.74728818  0.19366761     0.02400
H959        H  0.27284147  0.73228659  0.07021220     0.17000
H960        H  0.21133333  0.66514225  0.14574620     0.16700
C961        C  0.33521784  0.93383477  0.16144792    -0.14400
C962        C  0.33006344  0.91594359  0.12576055    -0.29600
H963        H  0.35437098  0.97332887  0.98023596     0.14600
H964        H  0.31194034  0.88671427  0.12224509     0.15200
C965        C  0.26740756  0.91313909  0.07928787    -0.11200
C966        C  0.26127209  0.92870533  0.10454889    -0.12800
C967        C  0.29682262  0.82303789  0.22362700    -0.11200
C968        C  0.29128016  0.79465435  0.20812916    -0.12800
C969        C  0.39394153  0.80570167  0.96571204    -0.14400
C970        C  0.38170826  0.82749884  0.96598670    -0.29600
H971        H  0.41034278  0.80784531  0.94293639     0.14600
H972        H  0.36491219  0.81683552  0.20504509     0.15200
C973        C  0.35508094  0.75360083  0.09188539    -0.11200
C974        C  0.33205802  0.74813224  0.11197815    -0.12800
C975        C  0.45714983  0.75091358  0.24090177    -0.11200
C976        C  0.48144505  0.75145418  0.22746992    -0.12800
C977        C  0.05596932  0.86892808  0.13752405    -0.14400
C978        C  0.04645833  0.85501329  0.17251117    -0.29600
H979        H  0.08315123  0.88427626  0.13313271     0.14600
H980        H  0.01547794  0.85897443  0.98296987     0.15200
C981        C  0.06715774  0.81764484  0.08792540    -0.11200
C982        C  0.05576947  0.79742550  0.11479928    -0.12800
C983        C  0.19432189  0.93871423  0.20798058    -0.11200
C984        C  0.16760369  0.91949565  0.22296341    -0.12800
C985        C  0.17138073  0.53203043  0.97581805    -0.14400
C986        C  0.16154906  0.54608665  0.94678408    -0.29600
H987        H  0.15422555  0.50430104  0.98307654     0.14600
H988        H  0.19286583  0.56042170  0.12478312     0.15200
C989        C  0.24549482  0.55121420  0.09599796    -0.11200
C990        C  0.24846040  0.53149987  0.11824132    -0.12800
C991        C  0.25828591  0.64825468  0.21678361    -0.11200
C992        C  0.26303908  0.67482099  0.20065909    -0.12800
C993        C  0.12161970  0.64563933  0.10668147    -0.14400
C994        C  0.14187375  0.65029104  0.13987050    -0.29600
H995        H  0.11196665  0.66343764  0.10305956     0.14600
H996        H  0.15016850  0.63143983  0.14452130     0.15200
C997        C  0.18847402  0.71176323  0.07003264    -0.11200
C998        C  0.21070590  0.71467037  0.09431140    -0.12800
C999        C  0.10164496  0.71718506  0.21020489    -0.11200
C1000       C  0.07951220  0.72398214  0.20286058    -0.12800
C1001       C  0.43424415  0.60010449  0.92808260    -0.14400
C1002       C  0.44849716  0.61810252  0.96397970    -0.29600
H1003       H  0.40699439  0.58886556  0.91991983     0.14600
H1004       H  0.42033762  0.57754921  0.14253755     0.15200
C1005       C  0.44618337  0.66443323  0.09427256    -0.11200
C1006       C  0.46882561  0.68673366  0.11899434    -0.12800
C1007       C  0.34123410  0.56860924  0.23049808    -0.11200
C1008       C  0.31398367  0.54077960  0.21925418    -0.12800
C1009       C  0.35772463  0.58528207  0.43197671     0.82300
N1010       N  0.36934081  0.58876247  0.39588544    -0.76000
C1011       C  0.42582011  0.61081147  0.19560707     0.84700
N1012       N  0.44637240  0.63823828  0.22424154    -0.76000
C1013       C  0.43237546  0.64501401  0.25498409     0.84800
N1014       N  0.37941241  0.60839026  0.46395340    -0.77700
C1015       C  0.13144682  0.72360977  0.43055561     0.82300
N1016       N  0.15416161  0.72558507  0.46031222    -0.76000
C1017       C  0.16971750  0.69876822  0.24063494     0.84700
N1018       N  0.16831099  0.68002207  0.20683852    -0.76000
C1019       C  0.15078566  0.69799361  0.38527484     0.84800
N1020       N  0.13019345  0.71005639  0.39370620    -0.77700
C1021       C  0.23353045  0.56305559  0.26432441     0.82300
N1022       N  0.24978804  0.59953482  0.25983611    -0.76000
C1023       C  0.24390530  0.61097437  0.43711541     0.84700
N1024       N  0.21878882  0.58974316  0.40789960    -0.76000
C1025       C  0.20809729  0.54960154  0.19817930     0.84800
N1026       N  0.21249736  0.53865286  0.23369793    -0.77700
C1027       C  0.13126299  0.89356575  0.42170517     0.82300
N1028       N  0.12305422  0.87518008  0.26388773    -0.76000
C1029       C  0.08897753  0.85027858  0.26775955     0.85000
N1030       N  0.06436217  0.84396983  0.23819652    -0.76000
C1031       C  0.07319570  0.86191777  0.20485165     0.84800
N1032       N  0.10967602  0.89387858  0.39240857    -0.77700
C1033       C  0.42881700  0.75582370  0.45561866     0.82300
N1034       N  0.41078133  0.74607637  0.48861498    -0.76000
C1035       C  0.38138679  0.75240542  0.27371537     0.84700
N1036       N  0.37646543  0.76878365  0.24280334    -0.76000
C1037       C  0.39739980  0.78074765  0.43141375     0.84800
N1038       N  0.42164859  0.77277316  0.42797440    -0.77700
C1039       C  0.29591358  0.90458500  0.25699637     0.82300
N1040       N  0.31037899  0.92548400  0.22632787    -0.76000
C1041       C  0.31985978  0.91265384  0.19575090     0.84700
N1042       N  0.31248823  0.87102131  0.40628665    -0.76000
C1043       C  0.29596576  0.85133440  0.43596270     0.84800
N1044       N  0.29160678  0.87100824  0.25719815    -0.77700
O1045       O  0.47984195  0.54916473  0.27044647    -0.86300
C1046       C  0.07954557  0.53010942  0.15801465     0.89700
Mg1047     Mg  0.43840828  0.98456072  0.28706766     1.58100
O1048       O  0.04142883  0.49814702  0.28266751    -0.86000
O1049       O  0.03074346  0.55878296  0.24478629    -0.73400
C1050       C  0.39394027  0.84894965  0.15636163     0.94800
O1051       O  0.50329554  0.52811977  0.17800236    -0.73200
O1052       O  0.37871545  0.86554188  0.14928234    -0.80700
Mg1053     Mg  0.04157689  0.56130491  0.12922222     1.58000
C1054       C  0.04102477  0.90020470  0.30159517     0.94700
O1055       O  0.06273908  0.62580271  0.29286894    -0.78900
H1056       H  0.04636273  0.99083013  0.21711298    -0.04300
C1057       C  0.00218702  0.91609484  0.16941720     0.89600
O1058       O  0.42863162  0.93384381  0.24857935    -0.73500
O1059       O  0.06520832  0.53088737  0.12608757    -0.86200
O1060       O  0.05475169  0.92946942  0.28496026    -0.79000
C1061       C  0.14088336  0.51319319  0.11301393     0.94800
C1062       C  0.09453418  0.63696531  0.29875154     0.94700
Mg1063     Mg  0.97837533  0.90940384  0.28988047     1.58000
O1064       O  0.42237950  0.85900634  0.14315476    -0.78900
O1065       O  0.01284839  0.94860676  0.24612825    -0.73200
O1066       O  0.12996495  0.53257670  0.09989612    -0.79000
O1067       O  0.51052716  0.59533399  0.13804726    -0.80700
O1068       O  0.38223153  0.90280747  0.30449233    -0.79100
C1069       C  0.03901848  0.98051020  0.24528642     0.89100
O1070       O  0.45030064  0.90866915  0.28469972    -0.86200
O1071       O  0.01006396  0.92302603  0.13542820    -0.86300
O1072       O  0.45146674  0.93748662  0.17863780    -0.73400
Mg1073     Mg  0.07181519  0.55551512  0.28466632     1.58000
O1074       O  0.12127694  0.47907305  0.11471460    -0.80700
H1075       H  0.98891270  0.55955444  0.22229680    -0.04500
O1076       O  0.43782477  0.97975738  0.12355217    -0.86000
H1077       H  0.42996347  0.99191604  0.17776285    -0.04300
H1078       H  0.42680317  0.88778209  0.22997914    -0.04500
C1079       C  0.44597597  0.00076082  0.15351711     0.89100
C1080       C  0.00235597  0.55672670  0.24796174     0.89700
C1081       C  0.43503705  0.90901636  0.25343949     0.89700
H1082       H  0.01831133  0.91171012  0.19024273    -0.04400
O1083       O  0.08146215  0.50288866  0.16523760    -0.73500
Mg1084     Mg  0.40926686  0.92393023  0.13237666     1.58000
H1085       H  0.08978825  0.55257657  0.18056773    -0.04500
C1086       C  0.47976361  0.58276558  0.14538734     0.94700
O1087       O  0.38475229  0.95438417  0.30749859    -0.80700
C1088       C  0.36992066  0.92146082  0.31475526     0.94800
O1089       O  0.10495886  0.61570680  0.29300442    -0.80700
Mg1090     Mg  0.06368974  0.94665887  0.12521623     1.58200
O1091       O  0.45589388  0.54962887  0.13594370    -0.79000
O1092       O  0.00846906  0.88099978  0.29986589    -0.80700
C1093       C  0.05818025  0.74353194  0.40333976     0.88500
C1094       C  0.07564231  0.77828806  0.38175426    -0.51700
C1095       C  0.05338361  0.78422108  0.35990560     0.11500
C1096       C  0.50774102  0.75564630  0.36008290     0.22400
C1097       C  0.03393387  0.74654868  0.42939584    -0.52400
C1098       C  0.50582903  0.75319795  0.40631397     0.11600
C1099       C  0.03414763  0.71313792  0.37018137    -0.52000
C1100       C  0.50249119  0.71914816  0.34516450     0.12100
H1101       H  0.10337409  0.79504081  0.38093040     0.16700
H1102       H  0.48915119  0.76133333  0.34475909     0.02400
H1103       H  0.03379431  0.74263708  0.46096944     0.17000
H1104       H  0.03524817  0.68921794  0.36395172     0.16700
C1105       C  0.26865847  0.95321073  0.34172153     0.88500
C1106       C  0.23786665  0.93046627  0.36536061    -0.51700
C1107       C  0.22979327  0.95054103  0.38891184     0.11500
C1108       C  0.23581117  0.48729835  0.38124911     0.22400
C1109       C  0.25960922  0.97724554  0.31882959    -0.52400
C1110       C  0.23850692  0.49580854  0.33711318     0.11600
C1111       C  0.29846794  0.97976157  0.37289829    -0.52000
C1112       C  0.27143304  0.49391434  0.39497192     0.12100
H1113       H  0.22262740  0.90097431  0.36208587     0.16700
H1114       H  0.22882633  0.50361502  0.39953440     0.02400
H1115       H  0.26006573  0.97876011  0.28678840     0.17000
H1116       H  0.32406888  0.98437749  0.37334582     0.16700
C1117       C  0.24434893  0.71788867  0.33089491     0.88500
C1118       C  0.25398130  0.75096007  0.35853248    -0.51700
C1119       C  0.28089297  0.76130821  0.38661516     0.11500
C1120       C  0.29729406  0.73803617  0.38315948     0.22400
C1121       C  0.27714063  0.72751344  0.31213291    -0.52400
C1122       C  0.30485452  0.73723120  0.33886982     0.11600
C1123       C  0.23882652  0.68855121  0.35908322    -0.52000
C1124       C  0.26673531  0.69928263  0.38655589     0.12100
H1125       H  0.23939845  0.76404238  0.35734253     0.16700
H1126       H  0.31965217  0.74651840  0.40546116     0.02400
H1127       H  0.27780540  0.72478290  0.28014223     0.17000
H1128       H  0.21531924  0.66184149  0.35727181     0.16700
C1129       C  0.33753663  0.92392419  0.36901452    -0.14400
C1130       C  0.34072153  0.90516335  0.33871504    -0.29600
H1131       H  0.35403585  0.96281270  0.16659379     0.14600
H1132       H  0.32523861  0.87565724  0.33620214     0.15200
C1133       C  0.28510752  0.91827137  0.28901513    -0.11200
C1134       C  0.27714974  0.93224523  0.31435005    -0.12800
C1135       C  0.29075090  0.81553368  0.43484467    -0.11200
C1136       C  0.28867078  0.78918971  0.41806218    -0.12800
C1137       C  0.39390742  0.79755310  0.17997835    -0.14400
C1138       C  0.38051102  0.81839241  0.18164700    -0.29600
H1139       H  0.40923300  0.79979333  0.15588930     0.14600
H1140       H  0.41682994  0.78719076  0.36027750     0.15200
C1141       C  0.35825799  0.74352482  0.30482274    -0.11200
C1142       C  0.33570357  0.74054212  0.32449954    -0.12800
C1143       C  0.45617880  0.75008175  0.44694848    -0.11200
C1144       C  0.47876795  0.75128020  0.42877288    -0.12800
C1145       C  0.06300179  0.89344161  0.32931559    -0.14400
C1146       C  0.05149878  0.87477372  0.36161088    -0.29600
H1147       H  0.09034139  0.90811006  0.32583287     0.14600
H1148       H  0.01949735  0.83997950  0.17782994     0.15200
C1149       C  0.07802105  0.82943609  0.30236540    -0.11200
C1150       C  0.06591130  0.80968621  0.32909062    -0.12800
C1151       C  0.19750650  0.93275436  0.40786168    -0.11200
C1152       C  0.16833284  0.91502933  0.41793530    -0.12800
C1153       C  0.18275880  0.52251202  0.16682285    -0.14400
C1154       C  0.17605331  0.53267573  0.13219817    -0.29600
H1155       H  0.16535786  0.49521389  0.17518347     0.14600
H1156       H  0.17858260  0.57841774  0.34898017     0.15200
C1157       C  0.23849749  0.54825431  0.29992791    -0.11200
C1158       C  0.23842718  0.52631770  0.32111852    -0.12800
C1159       C  0.26223064  0.64925132  0.43221955    -0.11200
C1160       C  0.26750448  0.67527034  0.41478885    -0.12800
C1161       C  0.11820550  0.67266774  0.31990093    -0.14400
C1162       C  0.14337739  0.67699201  0.34696054    -0.29600
H1163       H  0.10883535  0.69082176  0.32195046     0.14600
H1164       H  0.15253172  0.65862438  0.34534276     0.15200
C1165       C  0.19355270  0.70399415  0.27448615    -0.11200
C1166       C  0.21514209  0.70830970  0.30075765    -0.12800
C1167       C  0.10663667  0.73339990  0.43591737    -0.11200
C1168       C  0.08360824  0.73796038  0.42551229    -0.12800
C1169       C  0.47169249  0.60653553  0.16749189    -0.14400
C1170       C  0.43933054  0.59868687  0.16482444    -0.29600
H1171       H  0.49127878  0.62750671  0.18938393     0.14600
H1172       H  0.39528954  0.59002244  0.33048889     0.15200
C1173       C  0.45530950  0.67322026  0.28629795    -0.11200
C1174       C  0.47647968  0.69493223  0.31277691    -0.12800
C1175       C  0.32368096  0.55372118  0.43443609    -0.11200
C1176       C  0.29757563  0.52534109  0.42136678    -0.12800
C1177       C  0.36701592  0.58761373  0.63337329     0.82300
N1178       N  0.38230343  0.58493539  0.60190289    -0.76000
C1179       C  0.40194157  0.61441019  0.39046853     0.84700
N1180       N  0.42360340  0.63755160  0.42180718    -0.76000
C1181       C  0.41248306  0.63528539  0.45839626     0.84800
N1182       N  0.38646418  0.61351129  0.66416835    -0.77700
C1183       C  0.11274739  0.70813112  0.60809168     0.82300
N1184       N  0.13545460  0.71462118  0.64048460    -0.76000
C1185       C  0.17541244  0.71365715  0.45201596     0.84700
N1186       N  0.17323856  0.69939595  0.41464955    -0.76000
C1187       C  0.13377319  0.67753679  0.57279724     0.84800
N1188       N  0.11218044  0.68968347  0.57466264    -0.77700
C1189       C  0.22786506  0.55915370  0.47194918     0.82300
N1190       N  0.24877095  0.59591684  0.46977909    -0.76000
C1191       C  0.24293912  0.61448887  0.64435676     0.84700
N1192       N  0.22045888  0.59066537  0.61415719    -0.76000
C1193       C  0.19794077  0.55370870  0.40995923     0.84800
N1194       N  0.20237611  0.53838973  0.44216540    -0.77700
C1195       C  0.12088774  0.88278189  0.61572456     0.82300
N1196       N  0.11767017  0.87254377  0.45275698    -0.76000
C1197       C  0.08264249  0.85243092  0.45426018     0.85000
N1198       N  0.06168122  0.85343038  0.42456514    -0.76000
C1199       C  0.07496471  0.87395761  0.39353157     0.84800
N1200       N  0.09883410  0.88468475  0.58886961    -0.77700
C1201       C  0.42188935  0.75579482  0.64084710     0.82300
N1202       N  0.39748396  0.74463817  0.66746994    -0.76000
C1203       C  0.38603833  0.75456213  0.49222438     0.84700
N1204       N  0.38001076  0.77214133  0.46370177    -0.76000
C1205       C  0.40524018  0.79424130  0.61558419     0.84800
N1206       N  0.42508379  0.78018601  0.61541620    -0.77700
C1207       C  0.28849968  0.89856790  0.45858980     0.82300
N1208       N  0.30600246  0.91822611  0.42835296    -0.76000
C1209       C  0.31752201  0.90398515  0.40172056     0.84700
N1210       N  0.32302567  0.88999712  0.60928303    -0.76000
C1211       C  0.30762042  0.86652766  0.63724889     0.84800
N1212       N  0.28331692  0.86473061  0.46238569    -0.77700
O1213       O  0.49969779  0.53903878  0.48503026    -0.86300
C1214       C  0.05867916  0.55413958  0.36855312     0.89700
Mg1215     Mg  0.43807481  0.01980732  0.49233437     1.58100
O1216       O  0.04878081  0.47616610  0.48307927    -0.86000
O1217       O  0.02969265  0.52183427  0.43979058    -0.73400
C1218       C  0.41745648  0.83473812  0.34464837     0.94800
O1219       O  0.47980787  0.55453804  0.36626332    -0.73200
O1220       O  0.40159144  0.85112501  0.34401422    -0.80700
Mg1221     Mg  0.02232914  0.58641372  0.33218861     1.58000
C1222       C  0.03596718  0.90805313  0.51419457     0.94700
O1223       O  0.06012108  0.59473859  0.47107778    -0.78900
H1224       H  0.05479141  0.99988598  0.42939492    -0.04300
C1225       C  0.00499287  0.94112841  0.36987745     0.89600
O1226       O  0.42819465  0.96892309  0.45333546    -0.73500
O1227       O  0.04674884  0.55574512  0.33548763    -0.86200
O1228       O  0.05403090  0.93950440  0.50265415    -0.79000
C1229       C  0.12501372  0.53462527  0.33450404     0.94800
C1230       C  0.09192428  0.61157843  0.48190039     0.94700
Mg1231     Mg  0.97662109  0.92324219  0.49735357     1.58000
O1232       O  0.44495727  0.84583399  0.32850153    -0.78900
O1233       O  0.01497261  0.95832651  0.45384787    -0.73200
O1234       O  0.11651809  0.55606178  0.32112685    -0.79000
O1235       O  0.48840318  0.61676716  0.31849574    -0.80700
O1236       O  0.38012027  0.93829988  0.50197636    -0.79100
C1237       C  0.04183260  0.99008161  0.45561609     0.89100
O1238       O  0.44418842  0.94014575  0.49226450    -0.86200
O1239       O  0.01252208  0.94953133  0.33615255    -0.86300
O1240       O  0.47499092  0.91485198  0.37909244    -0.73400
Mg1241     Mg  0.07622104  0.53268893  0.47958760     1.58000
O1242       O  0.10347581  0.50093854  0.33479083    -0.80700
H1243       H  0.98293522  0.50693087  0.41576105    -0.04500
O1244       O  0.45907662  0.96884482  0.33720350    -0.86000
H1245       H  0.45820655  0.97418679  0.39623882    -0.04300
H1246       H  0.42577941  0.92238728  0.43515874    -0.04500
C1247       C  0.46983877  0.98685483  0.37051647     0.89100
C1248       C  0.00074745  0.51845889  0.44148063     0.89700
C1249       C  0.43267955  0.94281934  0.45925720     0.89700
H1250       H  0.02179936  0.93680512  0.38951491    -0.04400
O1251       O  0.06075098  0.52702788  0.37603264    -0.73500
Mg1252     Mg  0.42983674  0.91026724  0.33996323     1.58000
H1253       H  0.06719824  0.57593754  0.39150554    -0.04500
C1254       C  0.45722897  0.60171212  0.32610194     0.94700
O1255       O  0.38234921  0.98897840  0.51287390    -0.80700
C1256       C  0.36763179  0.95508685  0.51636945     0.94800
O1257       O  0.10729752  0.59474367  0.47999888    -0.80700
Mg1258     Mg  0.06644568  0.97688621  0.32586654     1.58200
O1259       O  0.43485272  0.56801523  0.31690414    -0.79000
O1260       O  0.00368088  0.89322143  0.51314937    -0.80700
C1261       C  0.04290251  0.73743312  0.58178166     0.88500
C1262       C  0.06089103  0.77138454  0.55905813    -0.51700
C1263       C  0.03950063  0.78046007  0.54087315     0.11500
C1264       C  0.49883339  0.74499376  0.55829882     0.22400
C1265       C  0.02308654  0.74448153  0.61186029    -0.52400
C1266       C  0.49565044  0.74107070  0.60374814     0.11600
C1267       C  0.01450556  0.70789217  0.55106623    -0.52000
C1268       C  0.49155365  0.70771617  0.54248240     0.12100
H1269       H  0.08819348  0.78567446  0.55532142     0.16700
H1270       H  0.48136943  0.75229960  0.54318466     0.02400
H1271       H  0.02460493  0.74012556  0.64317674     0.17000
H1272       H  0.01233728  0.68243935  0.54344217     0.16700
C1273       C  0.25884398  0.95152789  0.53587663     0.88500
C1274       C  0.22679156  0.92741587  0.55690566    -0.51700
C1275       C  0.21677414  0.94601770  0.57963072     0.11500
C1276       C  0.23870094  0.48830132  0.59069807     0.22400
C1277       C  0.25042506  0.97560870  0.51207686    -0.52400
C1278       C  0.23603924  0.49209039  0.54533869     0.11600
C1279       C  0.28660102  0.97806133  0.56937624    -0.52000
C1280       C  0.27630926  0.49882003  0.60024910     0.12100
H1281       H  0.21291689  0.89794408  0.55375001     0.16700
H1282       H  0.23192862  0.50494059  0.60869921     0.02400
H1283       H  0.25358886  0.97859726  0.48058520     0.17000
H1284       H  0.31247643  0.98350666  0.57266842     0.16700
C1285       C  0.25001265  0.72603865  0.53769105     0.88500
C1286       C  0.26158743  0.76087731  0.56306531    -0.51700
C1287       C  0.28717125  0.77015138  0.59247769     0.11500
C1288       C  0.29957265  0.74317140  0.59346405     0.22400
C1289       C  0.28282710  0.73167047  0.52171199    -0.52400
C1290       C  0.30880933  0.74002902  0.55085064     0.11600
C1291       C  0.24048687  0.69700688  0.56731990    -0.52000
C1292       C  0.26664179  0.70581103  0.59634346     0.12100
H1293       H  0.25005976  0.77688392  0.55840937     0.16700
H1294       H  0.32012049  0.75012532  0.61737517     0.02400
H1295       H  0.28483655  0.72801136  0.49025724     0.17000
H1296       H  0.21595297  0.67118762  0.56450592     0.16700
C1297       C  0.34425422  0.94836265  0.58093752    -0.14400
C1298       C  0.34130569  0.93543349  0.54336476    -0.29600
H1299       H  0.35322663  0.95336309  0.37248135     0.14600
H1300       H  0.32428514  0.90636032  0.53579037     0.15200
C1301       C  0.27663817  0.91461026  0.48704990    -0.11200
C1302       C  0.26881205  0.93068218  0.51006629    -0.12800
C1303       C  0.30370404  0.83123671  0.63244455    -0.11200
C1304       C  0.29915059  0.80258693  0.61901768    -0.12800
C1305       C  0.39255353  0.80121430  0.40138724    -0.14400
C1306       C  0.40647480  0.80383799  0.36735417    -0.29600
H1307       H  0.38243428  0.81790062  0.40922900     0.14600
H1308       H  0.37165814  0.83007280  0.59947240     0.15200
C1309       C  0.36410172  0.74501748  0.52428831    -0.11200
C1310       C  0.34027459  0.74210530  0.54108324    -0.12800
C1311       C  0.44566677  0.74364833  0.63725767    -0.11200
C1312       C  0.46858101  0.74132991  0.62415444    -0.12800
C1313       C  0.05371123  0.89148627  0.53282065    -0.14400
C1314       C  0.04127087  0.86943636  0.56251084    -0.29600
H1315       H  0.08030976  0.90297263  0.52698781     0.14600
H1316       H  0.02431650  0.86103991  0.36574518     0.15200
C1317       C  0.06695502  0.82894240  0.48637442    -0.11200
C1318       C  0.05265384  0.80765412  0.51146926    -0.12800
C1319       C  0.18569625  0.92632019  0.60019027    -0.11200
C1320       C  0.15754001  0.90627966  0.61169899    -0.12800
C1321       C  0.16764628  0.53290239  0.38047397    -0.14400
C1322       C  0.16019011  0.55006206  0.35295921    -0.29600
H1323       H  0.14886935  0.50486819  0.38528690     0.14600
H1324       H  0.18462729  0.56914555  0.54785101     0.15200
C1325       C  0.23215361  0.54104185  0.50490114    -0.11200
C1326       C  0.23320424  0.52018936  0.52696065    -0.12800
C1327       C  0.25836058  0.65245730  0.63877980    -0.11200
C1328       C  0.26459766  0.67952199  0.62302881    -0.12800
C1329       C  0.10766272  0.64628148  0.50611108    -0.14400
C1330       C  0.13029460  0.65401121  0.53803338    -0.29600
H1331       H  0.09462897  0.66093312  0.50340945     0.14600
H1332       H  0.14262973  0.63868960  0.54141647     0.15200
C1333       C  0.20000469  0.71537822  0.48247055    -0.11200
C1334       C  0.22199105  0.71796454  0.50678407    -0.12800
C1335       C  0.08870610  0.72009806  0.60771948    -0.11200
C1336       C  0.06741623  0.72790844  0.59921188    -0.12800
C1337       C  0.44764509  0.62225754  0.35136835    -0.14400
C1338       C  0.41447271  0.61038520  0.35325288    -0.29600
H1339       H  0.46719228  0.64243267  0.37386286     0.14600
H1340       H  0.41412891  0.57867847  0.54463663     0.15200
C1341       C  0.43745563  0.66006567  0.49097125    -0.11200
C1342       C  0.46177368  0.68202513  0.51449895    -0.12800
C1343       C  0.33092223  0.55988402  0.63384416    -0.11200
C1344       C  0.30336895  0.53227364  0.62294600    -0.12800
C1345       C  0.37442535  0.59123336  0.82770182     0.82300
N1346       N  0.39155068  0.59049000  0.79704581    -0.76000
C1347       C  0.41650675  0.60733261  0.60025692     0.84700
N1348       N  0.43596879  0.63307729  0.63066499    -0.76000
C1349       C  0.42112881  0.63676481  0.66231593     0.84800
N1350       N  0.39165579  0.61818114  0.85816950    -0.77700
C1351       C  0.10848553  0.70366376  0.80914065     0.82300
N1352       N  0.13319284  0.70868709  0.83823332    -0.76000
C1353       C  0.15718638  0.70223026  0.63877031     0.84700
N1354       N  0.15598931  0.68362372  0.60501684    -0.76000
C1355       C  0.12179660  0.66901859  0.76820269     0.84800
N1356       N  0.10328169  0.68407721  0.77479151    -0.77700
C1357       C  0.23175001  0.56536195  0.68162228     0.82300
N1358       N  0.24891359  0.60200425  0.67858835    -0.76000
C1359       C  0.24661842  0.62036591  0.82695933     0.84700
N1360       N  0.22118791  0.59775316  0.79868857    -0.76000
C1361       C  0.20365760  0.55446100  0.61720821     0.84800
N1362       N  0.20917976  0.54200531  0.65108999    -0.77700
C1363       C  0.13718910  0.90080906  0.83296886     0.82300
N1364       N  0.10809716  0.85932767  0.64491778    -0.76000
C1365       C  0.07314866  0.83800496  0.64658351     0.85000
N1366       N  0.05156385  0.84087615  0.61937243    -0.76000
C1367       C  0.06430909  0.86400098  0.59025745     0.84800
N1368       N  0.11439088  0.89396435  0.80120772    -0.77700
C1369       C  0.41782768  0.74926311  0.84317126     0.82300
N1370       N  0.39677876  0.73931193  0.87345759    -0.76000
C1371       C  0.37708571  0.75910037  0.66766743     0.84700
N1372       N  0.38168960  0.78418500  0.64198496    -0.76000
C1373       C  0.38874017  0.77446324  0.81261578     0.84800
N1374       N  0.41321477  0.76639094  0.81352376    -0.77700
C1375       C  0.29804646  0.90903497  0.66926844     0.82300
N1376       N  0.31434921  0.93252128  0.64147985    -0.76000
C1377       C  0.32644243  0.92292820  0.61115839     0.84700
N1378       N  0.31706304  0.88499733  0.80107526    -0.76000
C1379       C  0.29620373  0.86320254  0.82695908     0.84800
N1380       N  0.29454628  0.87580612  0.66722382    -0.77700
O1381       O  0.48035056  0.52881957  0.66582053    -0.86300
C1382       C  0.06153941  0.53655615  0.56371889     0.89700
Mg1383     Mg  0.46273857  0.00048266  0.70264317     1.58100
O1384       O  0.03919151  0.48538009  0.68641716    -0.86000
O1385       O  0.01601322  0.52593340  0.63400246    -0.73400
C1386       C  0.40694353  0.86836313  0.55840327     0.94800
O1387       O  0.49855300  0.53989065  0.57919800    -0.73200
O1388       O  0.39194599  0.88549148  0.55367427    -0.80700
Mg1389     Mg  0.02642827  0.56611918  0.51903281     1.58000
C1390       C  0.04732759  0.87905686  0.69920233     0.94700
O1391       O  0.04244978  0.59814789  0.65607779    -0.78900
H1392       H  0.07143468  0.97323015  0.62072213    -0.04300
C1393       C  0.99876539  0.96310122  0.57814252     0.89600
O1394       O  0.44640298  0.95117021  0.65712713    -0.73500
O1395       O  0.05100030  0.53612418  0.52895551    -0.86200
O1396       O  0.06206356  0.90745345  0.68180487    -0.79000
C1397       C  0.13234362  0.52189178  0.53554815     0.94800
C1398       C  0.07404563  0.61353893  0.66920800     0.94700
Mg1399     Mg  0.98986421  0.89314700  0.68483627     1.58000
O1400       O  0.43488021  0.87830363  0.54373232    -0.78900
O1401       O  0.02911461  0.93125040  0.64189809    -0.73200
O1402       O  0.12249961  0.54067491  0.51807060    -0.79000
O1403       O  0.50886135  0.60732027  0.54010432    -0.80700
O1404       O  0.39821529  0.91925150  0.71207396    -0.79100
C1405       C  0.05800219  0.96163907  0.64646341     0.89100
O1406       O  0.46425858  0.91975635  0.68688775    -0.86200
O1407       O  0.00788361  0.96351518  0.54467435    -0.86300
O1408       O  0.46707316  0.95382858  0.58517529    -0.73400
Mg1409     Mg  0.06368884  0.53935552  0.67203130     1.58000
O1410       O  0.11195952  0.48829420  0.53962089    -0.80700
H1411       H  0.98555652  0.49004025  0.67206523    -0.04500
O1412       O  0.45276123  0.00264015  0.54217689    -0.86000
H1413       H  0.44902090  0.01034406  0.59985566    -0.04300
H1414       H  0.43914496  0.90390888  0.63242646    -0.04500
C1415       C  0.46329069  0.02113776  0.57446090     0.89100
C1416       C  0.98925954  0.51033528  0.65212489     0.89700
C1417       C  0.44968645  0.92392060  0.65760722     0.89700
H1418       H  0.01609564  0.96840914  0.60367858    -0.04400
O1419       O  0.06393811  0.51056231  0.57523816    -0.73500
Mg1420     Mg  0.42304644  0.94549445  0.54428634     1.58000
H1421       H  0.06827322  0.55914889  0.58475856    -0.04500
C1422       C  0.47720009  0.59215233  0.54527735     0.94700
O1423       O  0.40888818  0.97455135  0.72230793    -0.80700
C1424       C  0.38915865  0.94063982  0.72383845     0.94800
O1425       O  0.09060230  0.59914239  0.65975868    -0.80700
Mg1426     Mg  0.06155293  0.98809166  0.54003654     1.58200
O1427       O  0.45526057  0.55944683  0.53222167    -0.79000
O1428       O  0.01483480  0.85929674  0.69395485    -0.80700
C1429       C  0.03963738  0.73202632  0.78258457     0.88500
C1430       C  0.05645149  0.76651313  0.76055018    -0.51700
C1431       C  0.03378143  0.77260841  0.73978907     0.11500
C1432       C  0.50055779  0.74837341  0.76011811     0.22400
C1433       C  0.01683562  0.73589401  0.81054628    -0.52400
C1434       C  0.50031941  0.75041843  0.80643325     0.11600
C1435       C  0.01427099  0.70173614  0.75006688    -0.52000
C1436       C  0.49378733  0.71048283  0.75009106     0.12100
H1437       H  0.08391506  0.78228869  0.75762239     0.16700
H1438       H  0.48172111  0.75313625  0.74369304     0.02400
H1439       H  0.01827853  0.73265212  0.84223180     0.17000
H1440       H  0.01568525  0.67829823  0.74205552     0.16700
C1441       C  0.26949959  0.95978205  0.74718531     0.88500
C1442       C  0.23828038  0.93980294  0.77069709    -0.51700
C1443       C  0.23129043  0.96200575  0.79183214     0.11500
C1444       C  0.24469945  0.49020009  0.79154655     0.22400
C1445       C  0.26241405  0.98345784  0.72082297    -0.52400
C1446       C  0.24091929  0.49755581  0.74780156     0.11600
C1447       C  0.29938209  0.98701242  0.77783539    -0.52000
C1448       C  0.28221888  0.49946362  0.79739332     0.12100
H1449       H  0.22285983  0.91040709  0.77053397     0.16700
H1450       H  0.23914643  0.50596257  0.81284044     0.02400
H1451       H  0.26403590  0.98328870  0.68886748     0.17000
H1452       H  0.32432136  0.98981592  0.78051552     0.16700
C1453       C  0.23626251  0.72461197  0.72410238     0.88500
C1454       C  0.24625020  0.75758290  0.75189367    -0.51700
C1455       C  0.27455972  0.76902161  0.77796769     0.11500
C1456       C  0.29156139  0.74643648  0.77290132     0.22400
C1457       C  0.26839468  0.73519941  0.70306541    -0.52400
C1458       C  0.29727272  0.74537943  0.72807893     0.11600
C1459       C  0.23297935  0.69576621  0.75182357    -0.52000
C1460       C  0.26216799  0.70733105  0.77738686     0.12100
H1461       H  0.23142043  0.77038971  0.75173770     0.16700
H1462       H  0.31488269  0.75574822  0.79379062     0.02400
H1463       H  0.26773325  0.73282947  0.67100408     0.17000
H1464       H  0.21011628  0.66862172  0.75072738     0.16700
C1465       C  0.35129372  0.94210078  0.77222887    -0.14400
C1466       C  0.35662719  0.92500317  0.74199847    -0.29600
H1467       H  0.36188225  0.97703708  0.59021418     0.14600
H1468       H  0.33926774  0.89584049  0.73563339     0.15200
C1469       C  0.28513878  0.92049741  0.70063669    -0.11200
C1470       C  0.27700953  0.93596920  0.72363397    -0.12800
C1471       C  0.28827091  0.82631865  0.82360684    -0.11200
C1472       C  0.28444609  0.79880864  0.80768354    -0.12800
C1473       C  0.41119176  0.82100099  0.58746229    -0.14400
C1474       C  0.39352501  0.83736102  0.58296683    -0.29600
H1475       H  0.43269736  0.82837484  0.57018108     0.14600
H1476       H  0.41920611  0.78865245  0.74750874     0.15200
C1477       C  0.35036114  0.74945687  0.69449787    -0.11200
C1478       C  0.32726561  0.74744683  0.71241771    -0.12800
C1479       C  0.44695572  0.74504732  0.84063372    -0.11200
C1480       C  0.47187186  0.74750450  0.82680557    -0.12800
C1481       C  0.06791196  0.87618358  0.73215079    -0.14400
C1482       C  0.05590505  0.86301256  0.76661032    -0.29600
H1483       H  0.09541068  0.89027890  0.72966288     0.14600
H1484       H  0.01495888  0.85851604  0.56919935     0.15200
C1485       C  0.05852313  0.81417152  0.67873289    -0.11200
C1486       C  0.04551613  0.79534813  0.70614749    -0.12800
C1487       C  0.20132318  0.94587624  0.81505503    -0.11200
C1488       C  0.17372282  0.92658308  0.82854227    -0.12800
C1489       C  0.17595584  0.52905262  0.58670287    -0.14400
C1490       C  0.16767403  0.54122744  0.55469287    -0.29600
H1491       H  0.15880540  0.50134494  0.59405324     0.14600
H1492       H  0.17700396  0.58294993  0.74164216     0.15200
C1493       C  0.23757739  0.54963037  0.71551498    -0.11200
C1494       C  0.23877954  0.52765199  0.73514397    -0.12800
C1495       C  0.26279614  0.65831104  0.82097197    -0.11200
C1496       C  0.26561314  0.68354377  0.80376120    -0.12800
C1497       C  0.08785470  0.64092758  0.70332892    -0.14400
C1498       C  0.11358259  0.64646661  0.73047718    -0.29600
H1499       H  0.07382227  0.65410335  0.70833518     0.14600
H1500       H  0.12698576  0.63249053  0.72616365     0.15200
C1501       C  0.18213187  0.70872107  0.67190230    -0.11200
C1502       C  0.20536124  0.71398282  0.69628349    -0.12800
C1503       C  0.08680164  0.71816633  0.81234514    -0.11200
C1504       C  0.06534451  0.72540667  0.80264316    -0.12800
C1505       C  0.46548729  0.61117290  0.57000972    -0.14400
C1506       C  0.43190822  0.59927474  0.56809429    -0.29600
H1507       H  0.48353728  0.63125330  0.59363782     0.14600
H1508       H  0.47193064  0.62273147  0.77379483     0.15200
C1509       C  0.44352461  0.66293158  0.69521727    -0.11200
C1510       C  0.46583729  0.68427275  0.72085535    -0.12800
C1511       C  0.33877504  0.56134652  0.82758242    -0.11200
C1512       C  0.31108553  0.53323044  0.81813384    -0.12800
C1513       C  0.37499676  0.59202002  0.02330954     0.82300
N1514       N  0.39322531  0.59436107  0.99238576    -0.76000
C1515       C  0.42541521  0.61596928  0.79609460     0.84700
N1516       N  0.44246046  0.64231741  0.82633514    -0.76000
C1517       C  0.42587305  0.64413746  0.85700618     0.84800
N1518       N  0.39169827  0.61490401  0.05720118    -0.77700
C1519       C  0.11820429  0.71595090  0.01563377     0.82300
N1520       N  0.14230385  0.72080425  0.04537697    -0.76000
C1521       C  0.15222916  0.69346989  0.83214486     0.84700
N1522       N  0.14629700  0.67356258  0.79704465    -0.76000
C1523       C  0.13558275  0.68560360  0.97374505     0.84800
N1524       N  0.11516017  0.69849785  0.98027365    -0.77700
C1525       C  0.23335763  0.57017188  0.86377646     0.82300
N1526       N  0.25297044  0.60687982  0.86024691    -0.76000
C1527       C  0.24371732  0.61591436  0.02867978     0.84700
N1528       N  0.21857113  0.59212504  0.00088144    -0.76000
C1529       C  0.20162317  0.56186560  0.80222464     0.84800
N1530       N  0.20764062  0.54806845  0.83483875    -0.77700
C1531       C  0.12478021  0.88732300  0.02190319     0.82300
N1532       N  0.12528810  0.88214699  0.86611626    -0.76000
C1533       C  0.09047720  0.85749564  0.86668272     0.85000
N1534       N  0.06838406  0.85157922  0.83433270    -0.76000
C1535       C  0.08017188  0.86947515  0.80151874     0.84800
N1536       N  0.10101920  0.88866642  0.99725695    -0.77700
C1537       C  0.42390114  0.76206536  0.03264651     0.82300
N1538       N  0.40358599  0.75418283  0.06323866    -0.76000
C1539       C  0.37141594  0.74726203  0.87218084     0.84700
N1540       N  0.36824448  0.76532061  0.84213308    -0.76000
C1541       C  0.39427685  0.78531195  0.99901507     0.84800
N1542       N  0.41866682  0.77713029  0.00108126    -0.77700
C1543       C  0.29164116  0.91159840  0.85267380     0.82300
N1544       N  0.31372204  0.93347742  0.82655669    -0.76000
C1545       C  0.32595836  0.91978366  0.80009744     0.84700
N1546       N  0.30939169  0.88406581  0.99198886    -0.76000
C1547       C  0.28952377  0.85890380  0.01637134     0.84800
N1548       N  0.28291156  0.87618911  0.85286390    -0.77700
O1549       O  0.48161933  0.52947942  0.86753594    -0.86300
C1550       C  0.04922753  0.55378267  0.75457817     0.89700
Mg1551     Mg  0.44051455  0.01970335  0.89259840     1.58100
O1552       O  0.04060330  0.48361266  0.88283471    -0.86000
O1553       O  0.02162521  0.53416232  0.83682652    -0.73400
C1554       C  0.42412800  0.83936887  0.73612398     0.94800
O1555       O  0.47056214  0.53753791  0.75959534    -0.73200
O1556       O  0.41154547  0.85897451  0.73865642    -0.80700
Mg1557     Mg  0.00479683  0.56954493  0.70160731     1.58000
C1558       C  0.03058340  0.90438227  0.92290105     0.94700
O1559       O  0.05266190  0.60488946  0.87367284    -0.78900
H1560       H  0.04705514  0.98938725  0.82948609    -0.04300
C1561       C  0.01428919  0.92219317  0.76925491     0.89600
O1562       O  0.43159665  0.97144958  0.84858828    -0.73500
O1563       O  0.03760592  0.54806109  0.71924335    -0.86200
O1564       O  0.04628154  0.93423407  0.90746744    -0.79000
C1565       C  0.12356027  0.53702534  0.73307127     0.94800
C1566       C  0.08462650  0.62015460  0.88352769     0.94700
Mg1567     Mg  0.96905425  0.91545011  0.90035362     1.58000
O1568       O  0.45197051  0.84945873  0.72120449    -0.78900
O1569       O  0.00738047  0.94838453  0.85487491    -0.73200
O1570       O  0.11352906  0.55349619  0.71088830    -0.79000
O1571       O  0.47780875  0.59517312  0.70591399    -0.80700
O1572       O  0.38137896  0.93927177  0.89363487    -0.79100
C1573       C  0.03344515  0.98064303  0.85552264     0.89100
O1574       O  0.44203469  0.93639460  0.88419983    -0.86200
O1575       O  0.02303848  0.92884536  0.73537998    -0.86300
O1576       O  0.48632325  0.91513791  0.77790908    -0.73400
Mg1577     Mg  0.06766585  0.54055740  0.87731206     1.58000
O1578       O  0.10284531  0.50636625  0.74504318    -0.80700
H1579       H  0.97734384  0.52875790  0.81391008    -0.04500
O1580       O  0.47556638  0.97638377  0.74830744    -0.86000
H1581       H  0.48148909  0.97908488  0.80750550    -0.04300
H1582       H  0.42765061  0.92533986  0.82547394    -0.04500
C1583       C  0.49136405  0.99186824  0.78096802     0.89100
C1584       C  0.99314272  0.53191616  0.84002956     0.89700
C1585       C  0.43364051  0.94342665  0.85171951     0.89700
H1586       H  0.03021645  0.91861710  0.79130053    -0.04400
O1587       O  0.05422650  0.53122779  0.77142795    -0.73500
Mg1588     Mg  0.44416969  0.91907500  0.74287109     1.58000
H1589       H  0.05472546  0.57809332  0.77155638    -0.04500
C1590       C  0.44547533  0.57677029  0.70898718     0.94700
O1591       O  0.38386440  0.98934464  0.90882378    -0.80700
C1592       C  0.36857180  0.95516936  0.90921614     0.94800
O1593       O  0.09895666  0.60248780  0.87840670    -0.80700
Mg1594     Mg  0.07640529  0.95140683  0.72831895     1.58200
O1595       O  0.42658284  0.54316148  0.69814553    -0.79000
O1596       O  0.99818550  0.88804994  0.92263178    -0.80700
C1597       C  0.04746596  0.74203768  0.99307853     0.88500
C1598       C  0.06616951  0.77717914  0.97259525    -0.51700
C1599       C  0.04514970  0.78521304  0.95163866     0.11500
C1600       C  0.50766039  0.75802507  0.95619796     0.22400
C1601       C  0.02391061  0.74602826  0.01992949    -0.52400
C1602       C  0.50426999  0.75631789  0.00179364     0.11600
C1603       C  0.02263087  0.71281332  0.95967324    -0.52000
C1604       C  0.49848386  0.71946756  0.94287886     0.12100
H1605       H  0.09400582  0.79318688  0.97237244     0.16700
H1606       H  0.49127446  0.76601020  0.93970006     0.02400
H1607       H  0.02344439  0.74123680  0.05125736     0.17000
H1608       H  0.02261137  0.68833905  0.95258682     0.16700
C1609       C  0.26190575  0.96017693  0.93638769     0.88500
C1610       C  0.23035660  0.93460487  0.95769561    -0.51700
C1611       C  0.22023024  0.95187458  0.98254979     0.11500
C1612       C  0.24359773  0.49563760  0.97981584     0.22400
C1613       C  0.25247416  0.98462250  0.91530192    -0.52400
C1614       C  0.24100196  0.50220691  0.93514428     0.11600
C1615       C  0.29005625  0.98592389  0.97007448    -0.52000
C1616       C  0.28073793  0.50357481  0.98736306     0.12100
H1617       H  0.21673408  0.90521772  0.95288529     0.16700
H1618       H  0.23856361  0.51248885  0.99994964     0.02400
H1619       H  0.25508772  0.98897892  0.88392447     0.17000
H1620       H  0.31614069  0.99197341  0.97191156     0.16700
C1621       C  0.23158742  0.71487013  0.91812956     0.88500
C1622       C  0.24131796  0.74971227  0.94229582    -0.51700
C1623       C  0.26873206  0.76235234  0.97024369     0.11500
C1624       C  0.28486620  0.73882440  0.97131159     0.22400
C1625       C  0.26466136  0.72326170  0.90048406    -0.52400
C1626       C  0.29236047  0.73468020  0.92817510     0.11600
C1627       C  0.22653025  0.68789334  0.94952826    -0.52000
C1628       C  0.25470811  0.70060014  0.97733045     0.12100
H1629       H  0.22723890  0.76317198  0.93801233     0.16700
H1630       H  0.30745309  0.74909248  0.99386048     0.02400
H1631       H  0.26556858  0.71884256  0.86901523     0.17000
H1632       H  0.20362827  0.66082279  0.94872641     0.16700
C1633       C  0.33787529  0.94497811  0.96904178    -0.14400
C1634       C  0.34027575  0.93350311  0.93293830    -0.29600
H1635       H  0.36841533  0.97115473  0.77959616     0.14600
H1636       H  0.32443352  0.90466492  0.92347477     0.15200
C1637       C  0.27981467  0.92694677  0.88222379    -0.11200
C1638       C  0.27194512  0.94124844  0.90759160    -0.12800
C1639       C  0.28385525  0.82306270  0.01006687    -0.11200
C1640       C  0.27937351  0.79472480  0.99595841    -0.12800
C1641       C  0.38885429  0.79829257  0.78342397    -0.14400
C1642       C  0.40858570  0.80520291  0.75376151    -0.29600
H1643       H  0.37796307  0.81448277  0.79003303     0.14600
H1644       H  0.36498506  0.82588712  0.98802895     0.15200
C1645       C  0.34734379  0.73847844  0.90172094    -0.11200
C1646       C  0.32344258  0.73651825  0.91739809    -0.12800
C1647       C  0.45239918  0.75681284  0.03196272    -0.11200
C1648       C  0.47680645  0.75672447  0.02047097    -0.12800
C1649       C  0.05128503  0.89165719  0.94360314    -0.14400
C1650       C  0.04155841  0.87109215  0.97488010    -0.29600
H1651       H  0.07766710  0.90423864  0.93641283     0.14600
H1652       H  0.02854604  0.84928444  0.76975561     0.15200
C1653       C  0.07581317  0.83548270  0.89992859    -0.11200
C1654       C  0.06010362  0.81351898  0.92381475    -0.12800
C1655       C  0.18902778  0.93099948  0.00298557    -0.11200
C1656       C  0.16105225  0.91091791  0.01515812    -0.12800
C1657       C  0.17042870  0.53954794  0.77472038    -0.14400
C1658       C  0.15995027  0.55492216  0.74801461    -0.29600
H1659       H  0.15328789  0.51150536  0.78098877     0.14600
H1660       H  0.17862322  0.57397016  0.93994101     0.15200
C1661       C  0.23868319  0.55331230  0.89749495    -0.11200
C1662       C  0.23946584  0.53202797  0.91920078    -0.12800
C1663       C  0.25682685  0.65350621  0.02311107    -0.11200
C1664       C  0.25790183  0.67784520  0.00559140    -0.12800
C1665       C  0.10242799  0.65429556  0.90926759    -0.14400
C1666       C  0.12819233  0.66194462  0.93729837    -0.29600
H1667       H  0.08958709  0.66915157  0.91067137     0.14600
H1668       H  0.14044259  0.64646344  0.93654069     0.15200
C1669       C  0.17879212  0.69827239  0.86263348    -0.11200
C1670       C  0.20177750  0.70334158  0.88757604    -0.12800
C1671       C  0.09436958  0.72748362  0.02028008    -0.11200
C1672       C  0.07220042  0.73412658  0.01294303    -0.12800
C1673       C  0.42914109  0.59193116  0.73116605    -0.14400
C1674       C  0.44484135  0.61214912  0.76568080    -0.29600
H1675       H  0.40156511  0.57964979  0.72431915     0.14600
H1676       H  0.47510774  0.62737552  0.97355184     0.15200
C1677       C  0.44663437  0.67163126  0.88959630    -0.11200
C1678       C  0.46931194  0.69428408  0.91413279    -0.12800
C1679       C  0.33859568  0.56314921  0.01985193    -0.11200
C1680       C  0.31015236  0.53642372  0.00902059    -0.12800
C1681       C  0.88670668  0.09247630  0.23681789     0.82300
N1682       N  0.90188872  0.08599516  0.20779333    -0.76000
C1683       C  0.90676248  0.11446981  0.00034657     0.84700
N1684       N  0.92786075  0.13596138  0.03283237    -0.76000
C1685       C  0.91571039  0.13311005  0.06881813     0.84800
N1686       N  0.90635518  0.12024911  0.26557011    -0.77700
C1687       C  0.62196696  0.19999372  0.22086212     0.82300
N1688       N  0.64882673  0.20717821  0.24781899    -0.76000
C1689       C  0.66751427  0.20813795  0.06110420     0.84700
N1690       N  0.66768432  0.19526414  0.02404919    -0.76000
C1691       C  0.63537328  0.16685181  0.17764804     0.84800
N1692       N  0.61577199  0.18017223  0.18632734    -0.77700
C1693       C  0.73479839  0.06655195  0.07923221     0.82300
N1694       N  0.75286628  0.10342255  0.07670974    -0.76000
C1695       C  0.74759719  0.11044572  0.24102026     0.84700
N1696       N  0.72071353  0.08773016  0.21398201    -0.76000
C1697       C  0.70257459  0.05785214  0.01783589     0.84800
N1698       N  0.70960046  0.04411565  0.04988230    -0.77700
C1699       C  0.63322760  0.39381093  0.23183723     0.82300
N1700       N  0.61875249  0.36333837  0.06520956    -0.76000
C1701       C  0.58481075  0.34019285  0.07143716     0.85000
N1702       N  0.55957074  0.33847548  0.04620227    -0.76000
C1703       C  0.56747243  0.35863093  0.01447066     0.84800
N1704       N  0.60906013  0.38822987  0.20212978    -0.77700
C1705       C  0.93739306  0.25091299  0.25083772     0.82300
N1706       N  0.91695699  0.24517043  0.28121579    -0.76000
C1707       C  0.88164481  0.25955366  0.07986724     0.84700
N1708       N  0.88213322  0.28161350  0.05206879    -0.76000
C1709       C  0.91003944  0.27490686  0.21444635     0.84800
N1710       N  0.93316733  0.26526371  0.21823511    -0.77700
C1711       C  0.79761466  0.41320231  0.06742704     0.82300
N1712       N  0.81151099  0.43384935  0.03656135    -0.76000
C1713       C  0.82179691  0.42155534  0.00648409     0.84700
N1714       N  0.82019882  0.38171879  0.21180480    -0.76000
C1715       C  0.80211620  0.35957708  0.23942705     0.84800
N1716       N  0.79469096  0.38037633  0.06854285    -0.77700
O1717       O  0.00427140  0.02248392  0.08760187    -0.86300
C1718       C  0.56224055  0.04749373  0.97365240     0.89700
Mg1719     Mg  0.95082578  0.49988363  0.09862979     1.58100
O1720       O  0.54087891  0.97376068  0.08969598    -0.86000
O1721       O  0.52179083  0.02070379  0.04030692    -0.73400
C1722       C  0.89985915  0.35970170  0.96044582     0.94800
O1723       O  0.98478274  0.05278225  0.97628556    -0.73200
O1724       O  0.88363646  0.37530471  0.95340394    -0.80700
Mg1725     Mg  0.52766169  0.08122207  0.93907097     1.58000
C1726       C  0.53472017  0.37675402  0.10862357     0.94700
O1727       O  0.55154809  0.09361113  0.06922007    -0.78900
H1728       H  0.55189858  0.45726863  0.01859558    -0.04300
C1729       C  0.48547497  0.45481325  0.98437240     0.89600
O1730       O  0.93439026  0.44858911  0.05528902    -0.73500
O1731       O  0.55171382  0.05070416  0.94044764    -0.86200
O1732       O  0.54804768  0.40427139  0.08930960    -0.79000
C1733       C  0.62979193  0.03182963  0.93869705     0.94800
C1734       C  0.58301185  0.10738003  0.08214541     0.94700
Mg1735     Mg  0.47290220  0.38626575  0.09177901     1.58000
O1736       O  0.92739059  0.36926092  0.94500016    -0.78900
O1737       O  0.50995994  0.41842893  0.04347090    -0.73200
O1738       O  0.62091548  0.05270557  0.92462866    -0.79000
O1739       O  0.99553923  0.11878408  0.93253386    -0.80700
O1740       O  0.88977568  0.42108115  0.10954837    -0.79100
C1741       C  0.53773617  0.44974355  0.04429843     0.89100
O1742       O  0.95178496  0.41754055  0.08740948    -0.86200
O1743       O  0.49682843  0.44989084  0.95435822    -0.86300
O1744       O  0.95723567  0.44545739  0.98265543    -0.73400
Mg1745     Mg  0.56770464  0.02947616  0.07957908     1.58000
O1746       O  0.60859639  0.99795985  0.93918899    -0.80700
H1747       H  0.48873813  0.98243217  0.07444377    -0.04500
O1748       O  0.94315329  0.49098610  0.93250609    -0.86000
H1749       H  0.93756340  0.50239273  0.98815767    -0.04300
H1750       H  0.92684368  0.40052588  0.03284268    -0.04500
C1751       C  0.95274368  0.51144031  0.96319786     0.89100
C1752       C  0.49429824  0.00484739  0.05702495     0.89700
C1753       C  0.93751493  0.42121948  0.05732751     0.89700
H1754       H  0.50143332  0.46585556  0.01159930    -0.04400
O1755       O  0.56266174  0.01935563  0.98070507    -0.73500
Mg1756     Mg  0.91397064  0.43434347  0.93888278     1.58000
H1757       H  0.57036986  0.06860018  0.99729712    -0.04500
C1758       C  0.96391492  0.10355223  0.93762276     0.94700
O1759       O  0.89761523  0.47439601  0.12239121    -0.80700
C1760       C  0.87968208  0.44035977  0.12419236     0.94800
O1761       O  0.59776571  0.09064804  0.07396607    -0.80700
Mg1762     Mg  0.55139386  0.47751289  0.95504226     1.58200
O1763       O  0.94170269  0.07053200  0.92536084    -0.79000
O1764       O  0.50212367  0.35734286  0.10756999    -0.80700
C1765       C  0.55261650  0.22922099  0.20321612     0.88500
C1766       C  0.57070926  0.26291553  0.18022844    -0.51700
C1767       C  0.54959144  0.27267487  0.16299728     0.11500
C1768       C  0.00965291  0.24401910  0.16265669     0.22400
C1769       C  0.53462518  0.23748343  0.23441408    -0.52400
C1770       C  0.01279016  0.24378242  0.20903751     0.11600
C1771       C  0.52301067  0.19982875  0.17290802    -0.52000
C1772       C  0.99913572  0.20505353  0.14832678     0.12100
H1773       H  0.59769874  0.27621363  0.17517416     0.16700
H1774       H  0.99117991  0.25127789  0.15067249     0.02400
H1775       H  0.53746703  0.23403860  0.26586524     0.17000
H1776       H  0.52031993  0.17418691  0.16448643     0.16700
C1777       C  0.76918488  0.46232973  0.14903007     0.88500
C1778       C  0.73759308  0.43969697  0.17128130    -0.51700
C1779       C  0.72932977  0.45967922  0.19450523     0.11500
C1780       C  0.75643644  0.99913791  0.19492879     0.22400
C1781       C  0.76156344  0.48714641  0.12552116    -0.52400
C1782       C  0.75188251  0.00329921  0.14989012     0.11600
C1783       C  0.79834205  0.48807150  0.18121768    -0.52000
C1784       C  0.79404998  0.00910018  0.20188245     0.12100
H1785       H  0.72251710  0.41019321  0.16822283     0.16700
H1786       H  0.75058198  0.01574231  0.21448040     0.02400
H1787       H  0.76335064  0.48912139  0.09369037     0.17000
H1788       H  0.82371270  0.49192483  0.18284040     0.16700
C1789       C  0.74294520  0.22007722  0.14336484     0.88500
C1790       C  0.75387382  0.25306721  0.17157723    -0.51700
C1791       C  0.78253486  0.26412905  0.19680675     0.11500
C1792       C  0.79847544  0.24050703  0.19089917     0.22400
C1793       C  0.77438089  0.22999704  0.12139096    -0.52400
C1794       C  0.80342550  0.23990892  0.14578233     0.11600
C1795       C  0.73914960  0.19075044  0.17021405    -0.52000
C1796       C  0.76832862  0.20127122  0.19509042     0.12100
H1797       H  0.73984441  0.26676009  0.17165022     0.16700
H1798       H  0.82209538  0.24921570  0.21112154     0.02400
H1799       H  0.77336251  0.22796646  0.08914288     0.17000
H1800       H  0.71592053  0.16384578  0.16890233     0.16700
C1801       C  0.84541229  0.43789381  0.17903146    -0.14400
C1802       C  0.84951571  0.42227086  0.14663472    -0.29600
H1803       H  0.85402478  0.47266870  0.97795951     0.14600
H1804       H  0.83363766  0.39289163  0.14090123     0.15200
C1805       C  0.78616369  0.42658084  0.09869545    -0.11200
C1806       C  0.77788209  0.44099708  0.12289726    -0.12800
C1807       C  0.79812094  0.32416602  0.23788936    -0.11200
C1808       C  0.79456434  0.29594297  0.22448615    -0.12800
C1809       C  0.90727343  0.31596122  0.99381548    -0.14400
C1810       C  0.88864326  0.33122142  0.98851654    -0.29600
H1811       H  0.92761332  0.32233141  0.97493196     0.14600
H1812       H  0.88147568  0.31470679  0.19819034     0.15200
C1813       C  0.85655635  0.24915317  0.10870695    -0.11200
C1814       C  0.83379207  0.24472947  0.12872792    -0.12800
C1815       C  0.96509313  0.24421636  0.25007747    -0.11200
C1816       C  0.98809710  0.24400100  0.23428447    -0.12800
C1817       C  0.55796480  0.37367992  0.13786833    -0.14400
C1818       C  0.54869093  0.35850351  0.17225387    -0.29600
H1819       H  0.58508746  0.38918132  0.13322166     0.14600
H1820       H  0.51639530  0.35147051  0.00138446     0.15200
C1821       C  0.57443554  0.31796570  0.10524191    -0.11200
C1822       C  0.56206782  0.29811899  0.13196497    -0.12800
C1823       C  0.69783570  0.44090221  0.21517440    -0.11200
C1824       C  0.66959575  0.42025369  0.22675527    -0.12800
C1825       C  0.67280266  0.03432049  0.98825119    -0.14400
C1826       C  0.66508923  0.04862974  0.95765721    -0.29600
H1827       H  0.65453081  0.00670755  0.99497919     0.14600
H1828       H  0.67713049  0.06957416  0.15409068     0.15200
C1829       C  0.74232439  0.05000551  0.11168089    -0.11200
C1830       C  0.74627633  0.03027800  0.13292824    -0.12800
C1831       C  0.76502777  0.14861939  0.23503088    -0.11200
C1832       C  0.77038700  0.17572657  0.21987804    -0.12800
C1833       C  0.59925637  0.13721000  0.11400578    -0.14400
C1834       C  0.62570630  0.14325145  0.14034417    -0.29600
H1835       H  0.58624386  0.15153437  0.11877973     0.14600
H1836       H  0.63845481  0.12857765  0.13605509     0.15200
C1837       C  0.69025724  0.20864231  0.09290843    -0.11200
C1838       C  0.71233235  0.21072755  0.11648003    -0.12800
C1839       C  0.59915443  0.21263828  0.22670823    -0.11200
C1840       C  0.57721737  0.21971610  0.21988512    -0.12800
C1841       C  0.95344478  0.12294850  0.96318473    -0.14400
C1842       C  0.92020257  0.11111679  0.96366602    -0.29600
H1843       H  0.97231501  0.14226074  0.98676951     0.14600
H1844       H  0.93163144  0.07367440  0.15372215     0.15200
C1845       C  0.94074289  0.15679329  0.10223198    -0.11200
C1846       C  0.96653834  0.17873093  0.12422679    -0.12800
C1847       C  0.85006333  0.06756612  0.23659939    -0.11200
C1848       C  0.82176621  0.04138896  0.22527024    -0.12800
C1849       C  0.87698452  0.09286051  0.44241163     0.82300
N1850       N  0.89238655  0.09336227  0.40974955    -0.76000
C1851       C  0.93632013  0.10626525  0.20672941     0.84700
N1852       N  0.95622393  0.13393636  0.23531275    -0.76000
C1853       C  0.94125277  0.14133506  0.26445253     0.84800
N1854       N  0.89588070  0.11806678  0.47414351    -0.77700
C1855       C  0.62116022  0.20804780  0.41378293     0.82300
N1856       N  0.64482974  0.21269568  0.44390666    -0.76000
C1857       C  0.66896458  0.19377147  0.23962947     0.84700
N1858       N  0.66194687  0.17340687  0.20454378    -0.76000
C1859       C  0.64081319  0.18007501  0.37167479     0.84800
N1860       N  0.61933520  0.19175918  0.37801061    -0.77700
C1861       C  0.73605386  0.06042130  0.27719164     0.82300
N1862       N  0.75551557  0.09696143  0.27313534    -0.76000
C1863       C  0.75119540  0.11055104  0.43181625     0.84700
N1864       N  0.72858713  0.08730206  0.40153928    -0.76000
C1865       C  0.70138568  0.05172049  0.21794227     0.84800
N1866       N  0.70902248  0.03817965  0.24969206    -0.77700
C1867       C  0.61588464  0.38286490  0.41815173     0.82300
N1868       N  0.62284176  0.37389657  0.26437076    -0.76000
C1869       C  0.58835552  0.34917305  0.26663436     0.85000
N1870       N  0.56490432  0.34451204  0.23654960    -0.76000
C1871       C  0.57497889  0.36369325  0.20423260     0.84800
N1872       N  0.59239905  0.38269642  0.39162045    -0.77700
C1873       C  0.93154022  0.27012954  0.43798926     0.82300
N1874       N  0.90984788  0.26008431  0.46752177    -0.76000
C1875       C  0.89264797  0.25467514  0.27729800     0.84700
N1876       N  0.88990690  0.27001745  0.24398812    -0.76000
C1877       C  0.90485946  0.29840179  0.40822347     0.84800
N1878       N  0.92847945  0.28893147  0.40880347    -0.77700
C1879       C  0.79007834  0.40329790  0.26249954     0.82300
N1880       N  0.80902969  0.42541695  0.23465003    -0.76000
C1881       C  0.82374956  0.41439269  0.20888544     0.84700
N1882       N  0.81230930  0.36986846  0.39576394    -0.76000
C1883       C  0.79624811  0.35065441  0.42597547     0.84800
N1884       N  0.78652097  0.37010280  0.26485533    -0.77700
O1885       O  0.00425983  0.04890876  0.28803080    -0.86300
C1886       C  0.55302028  0.04077269  0.16126712     0.89700
Mg1887     Mg  0.93505690  0.52327598  0.28346696     1.58100
O1888       O  0.55344085  0.97416530  0.27584194    -0.86000
O1889       O  0.53026171  0.02393070  0.23903317    -0.73400
C1890       C  0.91261009  0.34402154  0.14984995     0.94800
O1891       O  0.01357574  0.02158579  0.17958898    -0.73200
O1892       O  0.89937878  0.36277681  0.14563535    -0.80700
Mg1893     Mg  0.51185650  0.06244927  0.11198601     1.58000
C1894       C  0.52630507  0.40211056  0.31744281     0.94700
O1895       O  0.55703251  0.09283890  0.28153769    -0.78900
H1896       H  0.53941679  0.48597879  0.22302040    -0.04300
C1897       C  0.49963521  0.42202964  0.17092581     0.89600
O1898       O  0.92511540  0.47255449  0.24384358    -0.73500
O1899       O  0.54128700  0.03683991  0.12635564    -0.86200
O1900       O  0.54389048  0.43279637  0.30399968    -0.79000
C1901       C  0.62424525  0.02248872  0.14263780     0.94800
C1902       C  0.58956232  0.10993233  0.28720454     0.94700
Mg1903     Mg  0.46463880  0.41416317  0.29739839     1.58000
O1904       O  0.93981032  0.35164353  0.13408283    -0.78900
O1905       O  0.50096999  0.44664326  0.25126244    -0.73200
O1906       O  0.61485601  0.03968924  0.12084612    -0.79000
O1907       O  0.02208725  0.09281353  0.14620556    -0.80700
O1908       O  0.87485661  0.44414981  0.29423951    -0.79100
C1909       C  0.52805778  0.47793902  0.25049345     0.89100
O1910       O  0.93663201  0.44021016  0.28298634    -0.86200
O1911       O  0.50728560  0.42802341  0.13674128    -0.86300
O1912       O  0.97713535  0.41927964  0.17898975    -0.73400
Mg1913     Mg  0.57816277  0.03166940  0.27571709     1.58000
O1914       O  0.60327163  0.99018955  0.15081433    -0.80700
H1915       H  0.48347983  0.01490096  0.22038458    -0.04500
O1916       O  0.96704887  0.47880999  0.14435077    -0.86000
H1917       H  0.97550360  0.48438840  0.20361895    -0.04300
H1918       H  0.92075599  0.42523342  0.22486456    -0.04500
C1919       C  0.98409810  0.49585362  0.17599013     0.89100
C1920       C  0.50090234  0.01809984  0.24502397     0.89700
C1921       C  0.92729576  0.44494459  0.24964267     0.89700
H1922       H  0.51652146  0.41947478  0.19256086    -0.04400
O1923       O  0.55605114  0.01624798  0.17620241    -0.73500
Mg1924     Mg  0.93433413  0.42190215  0.14339398     1.58000
H1925       H  0.56041343  0.06521845  0.17946348    -0.04500
C1926       C  0.99144040  0.08050008  0.15396216     0.94700
O1927       O  0.87841063  0.49579843  0.29856751    -0.80700
C1928       C  0.86548164  0.46396413  0.30936782     0.94800
O1929       O  0.60507589  0.09342741  0.28203255    -0.80700
Mg1930     Mg  0.56063580  0.45390704  0.12673919     1.58200
O1931       O  0.96728686  0.04806915  0.14270298    -0.79000
O1932       O  0.49411230  0.38733997  0.31716324    -0.80700
C1933       C  0.54989986  0.23449063  0.39538328     0.88500
C1934       C  0.56824039  0.26794581  0.37198656    -0.51700
C1935       C  0.54708369  0.27648332  0.35227175     0.11500
C1936       C  0.01302375  0.25823832  0.36187115     0.22400
C1937       C  0.52931626  0.24216304  0.42379330    -0.52400
C1938       C  0.00937267  0.25744287  0.40735322     0.11600
C1939       C  0.52237731  0.20408666  0.36483761    -0.52000
C1940       C  0.00899831  0.22161720  0.35014630     0.12100
H1941       H  0.59579587  0.28273813  0.36960635     0.16700
H1942       H  0.99455066  0.26272339  0.34411008     0.02400
H1943       H  0.53104521  0.23994619  0.45568395     0.17000
H1944       H  0.52045212  0.17841106  0.35885011     0.16700
C1945       C  0.75518456  0.45121168  0.33866419     0.88500
C1946       C  0.72212043  0.42655620  0.35773312    -0.51700
C1947       C  0.71144634  0.44479452  0.37996210     0.11500
C1948       C  0.75091824  0.99112474  0.39531526     0.22400
C1949       C  0.74795463  0.47614215  0.31474998    -0.52400
C1950       C  0.74910851  0.99616715  0.35016723     0.11600
C1951       C  0.78164684  0.47674690  0.37362073    -0.52000
C1952       C  0.78840161  0.00133929  0.40552596     0.12100
H1953       H  0.70825708  0.39710061  0.35392490     0.16700
H1954       H  0.74404516  0.00737183  0.41368262     0.02400
H1955       H  0.75246322  0.48004373  0.28367187     0.17000
H1956       H  0.80730627  0.48193198  0.37857652     0.16700
C1957       C  0.75043727  0.21745301  0.32357067     0.88500
C1958       C  0.75728417  0.24904813  0.35190694    -0.51700
C1959       C  0.78345532  0.26006301  0.38127464     0.11500
C1960       C  0.80166525  0.23851509  0.37888675     0.22400
C1961       C  0.78502173  0.23008293  0.30720064    -0.52400
C1962       C  0.81191525  0.24010346  0.33559122     0.11600
C1963       C  0.74516398  0.18767960  0.35090143    -0.52000
C1964       C  0.77201987  0.19880298  0.37999083     0.12100
H1965       H  0.74190405  0.26120270  0.34957760     0.16700
H1966       H  0.82306805  0.24720886  0.40251324     0.02400
H1967       H  0.78770982  0.22963766  0.27569036     0.17000
H1968       H  0.72240840  0.16034166  0.34745567     0.16700
C1969       C  0.83186599  0.41822036  0.35374665    -0.14400
C1970       C  0.84662760  0.45288070  0.34521013    -0.29600
H1971       H  0.86100823  0.46711375  0.18597765     0.14600
H1972       H  0.84776436  0.47312649  0.36573738     0.15200
C1973       C  0.77564782  0.41653261  0.29063817    -0.11200
C1974       C  0.76627707  0.43118275  0.31341655    -0.12800
C1975       C  0.79203047  0.31530681  0.42642491    -0.11200
C1976       C  0.79037885  0.28857667  0.41141691    -0.12800
C1977       C  0.91136860  0.29436079  0.17996826    -0.14400
C1978       C  0.89850628  0.31531485  0.17712458    -0.29600
H1979       H  0.92822048  0.29541851  0.15831797     0.14600
H1980       H  0.86645984  0.33020947  0.39332464     0.15200
C1981       C  0.86857135  0.24866774  0.30685106    -0.11200
C1982       C  0.84451891  0.24546375  0.32385999    -0.12800
C1983       C  0.95836053  0.26187815  0.43562174    -0.11200
C1984       C  0.98187968  0.25919314  0.42506425    -0.12800
C1985       C  0.54456471  0.38613564  0.33649296    -0.14400
C1986       C  0.53384089  0.36645903  0.36836405    -0.29600
H1987       H  0.57057094  0.39663147  0.32888887     0.14600
H1988       H  0.52175933  0.34354222  0.17773185     0.15200
C1989       C  0.57541394  0.32650680  0.29976279    -0.11200
C1990       C  0.56108680  0.30455601  0.32413392    -0.12800
C1991       C  0.67999610  0.42501243  0.39964512    -0.11200
C1992       C  0.65199217  0.40562727  0.41163101    -0.12800
C1993       C  0.66984424  0.02827619  0.19081023    -0.14400
C1994       C  0.65999672  0.04179313  0.16120959    -0.29600
H1995       H  0.65261683  0.00060963  0.19819938     0.14600
H1996       H  0.69075434  0.06970124  0.33779089     0.15200
C1997       C  0.74322735  0.04404219  0.30995165    -0.11200
C1998       C  0.74564682  0.02400720  0.33212062    -0.12800
C1999       C  0.76742405  0.14854608  0.42564245    -0.11200
C2000       C  0.77242281  0.17443172  0.40805129    -0.12800
C2001       C  0.60783365  0.14650107  0.30793267    -0.14400
C2002       C  0.63485478  0.15703253  0.33518904    -0.29600
H2003       H  0.59367741  0.15998944  0.30882033     0.14600
H2004       H  0.64844840  0.14290452  0.33501258     0.15200
C2005       C  0.69741241  0.20051722  0.26826965    -0.11200
C2006       C  0.72123228  0.20668788  0.29247326    -0.12800
C2007       C  0.59668973  0.21870713  0.41887842    -0.11200
C2008       C  0.57462139  0.22579455  0.41355555    -0.12800
C2009       C  0.98320906  0.10319757  0.17819235    -0.14400
C2010       C  0.95049995  0.09453561  0.17631507    -0.29600
H2011       H  0.00281849  0.12399948  0.20021525     0.14600
H2012       H  0.92422017  0.09260981  0.35008496     0.15200
C2013       C  0.96288711  0.17055084  0.29490868    -0.11200
C2014       C  0.98315668  0.19457215  0.31987135    -0.12800
C2015       C  0.84156963  0.06268848  0.44231219    -0.11200
C2016       C  0.81502031  0.03437854  0.42973778    -0.12800
C2017       C  0.86625355  0.08758282  0.64626551     0.82300
N2018       N  0.88172968  0.09214340  0.61266010    -0.76000
C2019       C  0.92607077  0.11790235  0.40768870     0.84700
N2020       N  0.94502174  0.14289793  0.43886848    -0.76000
C2021       C  0.93010636  0.14370077  0.47184022     0.84800
N2022       N  0.88501908  0.10979709  0.68022659    -0.77700
C2023       C  0.63011278  0.22889280  0.62392132     0.82300
N2024       N  0.65238415  0.23205631  0.65513469    -0.76000
C2025       C  0.66637700  0.20077882  0.43781974     0.84700
N2026       N  0.66412228  0.18440620  0.40181439    -0.76000
C2027       C  0.64872637  0.19927023  0.58310576     0.84800
N2028       N  0.62870900  0.21272012  0.58859587    -0.77700
C2029       C  0.73655639  0.06077299  0.46988009     0.82300
N2030       N  0.75554014  0.09750713  0.46656965    -0.76000
C2031       C  0.75545043  0.12191541  0.63132401     0.84700
N2032       N  0.72821798  0.09967099  0.60474206    -0.76000
C2033       C  0.70978037  0.05122793  0.40476429     0.84800
N2034       N  0.71354785  0.03806571  0.43910483    -0.77700
C2035       C  0.62849448  0.38479471  0.62624439     0.82300
N2036       N  0.60508317  0.36251321  0.45003073    -0.76000
C2037       C  0.57071948  0.34223396  0.45499308     0.85000
N2038       N  0.54752089  0.34290731  0.42810285    -0.76000
C2039       C  0.55828830  0.36290288  0.39606694     0.84800
N2040       N  0.60469962  0.38367914  0.59949042    -0.77700
C2041       C  0.93049546  0.26292773  0.65411663     0.82300
N2042       N  0.91167035  0.25855948  0.68564053    -0.76000
C2043       C  0.88578256  0.26975204  0.46706527     0.84700
N2044       N  0.88387980  0.28921216  0.43758352    -0.76000
C2045       C  0.89973981  0.28287184  0.61699447     0.84800
N2046       N  0.92388394  0.27458667  0.62054972    -0.77700
C2047       C  0.78614847  0.39662600  0.44599688     0.82300
N2048       N  0.80300026  0.41581146  0.41509521    -0.76000
C2049       C  0.81595974  0.40203248  0.38987436     0.84700
N2050       N  0.80884843  0.38328493  0.59178699    -0.76000
C2051       C  0.79097940  0.36109001  0.61937410     0.84800
N2052       N  0.78247624  0.36363186  0.45120115    -0.77700
O2053       O  0.00122868  0.06266443  0.48958936    -0.86300
C2054       C  0.56949650  0.03027083  0.36151673     0.89700
Mg2055     Mg  0.93885248  0.50084950  0.48006173     1.58100
O2056       O  0.54634481  0.99730602  0.48489127    -0.86000
O2057       O  0.53036408  0.05355892  0.44451108    -0.73400
C2058       C  0.89742719  0.36646219  0.34779050     0.94800
O2059       O  0.01180688  0.04444239  0.37930107    -0.73200
O2060       O  0.88203127  0.38341144  0.34370745    -0.80700
Mg2061     Mg  0.52604203  0.05510919  0.32753807     1.58000
C2062       C  0.53573696  0.38848594  0.51294898     0.94700
O2063       O  0.56311760  0.12190496  0.48848027    -0.78900
H2064       H  0.55764977  0.47421164  0.42526747    -0.04300
C2065       C  0.48979220  0.46398076  0.37527565     0.89600
O2066       O  0.92687342  0.44748615  0.44397526    -0.73500
O2067       O  0.55573745  0.03029862  0.32879678    -0.86200
O2068       O  0.55151647  0.41782004  0.49672575    -0.79000
C2069       C  0.63939535  0.02166294  0.32234440     0.94800
C2070       C  0.59523146  0.13521054  0.49507470     0.94700
Mg2071     Mg  0.47539172  0.40013806  0.49276949     1.58000
O2072       O  0.92509422  0.37694603  0.33234953    -0.78900
O2073       O  0.51482414  0.43381612  0.44753844    -0.73200
O2074       O  0.62715190  0.04018625  0.30986131    -0.79000
O2075       O  0.01609832  0.11480223  0.34801547    -0.80700
O2076       O  0.88005817  0.42314026  0.49447181    -0.79100
C2077       C  0.54256356  0.46530039  0.45033199     0.89100
O2078       O  0.94360712  0.42031538  0.48439621    -0.86200
O2079       O  0.49659595  0.46128100  0.34044661    -0.86300
O2080       O  0.95596322  0.44749150  0.37764785    -0.73400
Mg2081     Mg  0.57517665  0.05464630  0.48344852     1.58000
O2082       O  0.62130686  0.98733759  0.32155949    -0.80700
H2083       H  0.48739948  0.05388844  0.42528092    -0.04500
O2084       O  0.94536027  0.50274739  0.33431175    -0.86000
H2085       H  0.93579792  0.51037477  0.38933613    -0.04300
H2086       H  0.92302725  0.39966024  0.42859863    -0.04500
C2087       C  0.95303787  0.52095677  0.36634428     0.89100
C2088       C  0.50243171  0.05205609  0.45005219     0.89700
C2089       C  0.93108750  0.42142913  0.45134510     0.89700
H2090       H  0.50943259  0.47381083  0.39915353    -0.04400
O2091       O  0.57510778  0.00537645  0.36860653    -0.73500
Mg2092     Mg  0.91463856  0.44482848  0.33570697     1.58000
H2093       H  0.57651740  0.05154192  0.38461284    -0.04500
C2094       C  0.98490057  0.10063645  0.35426525     0.94700
O2095       O  0.88383717  0.47502700  0.49873763    -0.80700
C2096       C  0.86781858  0.44166744  0.50454345     0.94800
O2097       O  0.60751218  0.11573683  0.48868739    -0.80700
Mg2098     Mg  0.55117537  0.48369270  0.33620415     1.58200
O2099       O  0.96207597  0.06775678  0.34259828    -0.79000
O2100       O  0.50307838  0.37048001  0.50993042    -0.80700
C2101       C  0.55404034  0.24729545  0.59804903     0.88500
C2102       C  0.56744719  0.28033834  0.57360973    -0.51700
C2103       C  0.54228449  0.28369580  0.55455139     0.11500
C2104       C  0.00713884  0.25827630  0.56885130     0.22400
C2105       C  0.53246332  0.25085073  0.62793694    -0.52400
C2106       C  0.00899226  0.26005648  0.61531950     0.11600
C2107       C  0.52755911  0.21490866  0.56825042    -0.52000
C2108       C  0.00287395  0.22163641  0.55726455     0.12100
H2109       H  0.59425845  0.29694143  0.56787856     0.16700
H2110       H  0.98646271  0.26119877  0.55420059     0.02400
H2111       H  0.53560669  0.24807834  0.65949998     0.17000
H2112       H  0.52934902  0.19156293  0.56103116     0.16700
C2113       C  0.75524133  0.44783335  0.52422537     0.88500
C2114       C  0.72657187  0.42456079  0.55036683    -0.51700
C2115       C  0.71822944  0.44385135  0.57479065     0.11500
C2116       C  0.74244922  0.98731211  0.58881541     0.22400
C2117       C  0.74291968  0.46940689  0.50158237    -0.52400
C2118       C  0.74402425  0.99475146  0.54424221     0.11600
C2119       C  0.78560105  0.47684933  0.55350402    -0.52000
C2120       C  0.77929970  0.99660569  0.60227888     0.12100
H2121       H  0.71380817  0.39522413  0.54945677     0.16700
H2122       H  0.73436373  0.00282460  0.60664266     0.02400
H2123       H  0.74308193  0.47093600  0.46958981     0.17000
H2124       H  0.81179461  0.48378690  0.55230979     0.16700
C2125       C  0.74356909  0.22126912  0.52409230     0.88500
C2126       C  0.75091479  0.25422950  0.55013327    -0.51700
C2127       C  0.77905263  0.26834060  0.57719185     0.11500
C2128       C  0.79851281  0.24795694  0.57492446     0.22400
C2129       C  0.77646309  0.23330762  0.50436688    -0.52400
C2130       C  0.80531507  0.24658489  0.53040817     0.11600
C2131       C  0.74162347  0.19416026  0.55356444    -0.52000
C2132       C  0.77060519  0.20809583  0.58028611     0.12100
H2133       H  0.73458619  0.26528928  0.54780577     0.16700
H2134       H  0.82175652  0.25921791  0.59657537     0.02400
H2135       H  0.77660422  0.22993678  0.47235614     0.17000
H2136       H  0.71981785  0.16637147  0.55273409     0.16700
C2137       C  0.83528177  0.43990722  0.56041357    -0.14400
C2138       C  0.83787508  0.42418979  0.52707077    -0.29600
H2139       H  0.83284711  0.39936958  0.33281993     0.14600
H2140       H  0.82137056  0.39489458  0.52111962     0.15200
C2141       C  0.77320836  0.41205402  0.47378947    -0.11200
C2142       C  0.76446154  0.42710341  0.49700452    -0.12800
C2143       C  0.78789494  0.32609936  0.61781152    -0.11200
C2144       C  0.78688364  0.29919030  0.60438996    -0.12800
C2145       C  0.90456204  0.32031926  0.37642964    -0.14400
C2146       C  0.88596904  0.33599396  0.37345290    -0.29600
H2147       H  0.92358749  0.32626604  0.35574221     0.14600
H2148       H  0.87176965  0.32358440  0.60097789     0.15200
C2149       C  0.86102556  0.25936747  0.49640678    -0.11200
C2150       C  0.83728696  0.25372776  0.51542053    -0.12800
C2151       C  0.95917741  0.25806360  0.65361309    -0.11200
C2152       C  0.98270843  0.25873557  0.63845031    -0.12800
C2153       C  0.55628320  0.37998862  0.54007415    -0.14400
C2154       C  0.54570250  0.36390958  0.57397657    -0.29600
H2155       H  0.58303059  0.39215477  0.53450676     0.14600
H2156       H  0.50820867  0.35668170  0.37686441     0.15200
C2157       C  0.55884755  0.32098812  0.48949922    -0.11200
C2158       C  0.54965058  0.30404064  0.51897054    -0.12800
C2159       C  0.69043189  0.42528048  0.60081372    -0.11200
C2160       C  0.66439097  0.40680346  0.61740922    -0.12800
C2161       C  0.68219560  0.02727797  0.37341460    -0.14400
C2162       C  0.67429506  0.04114174  0.34253961    -0.29600
H2163       H  0.66498891  0.99906774  0.37908737     0.14600
H2164       H  0.68535730  0.08500769  0.54703127     0.15200
C2165       C  0.74077430  0.04436703  0.50458648    -0.11200
C2166       C  0.74160807  0.02345849  0.52675839    -0.12800
C2167       C  0.77203167  0.16018672  0.62547611    -0.11200
C2168       C  0.77496130  0.18560931  0.60825574    -0.12800
C2169       C  0.61658485  0.17048889  0.51800470    -0.14400
C2170       C  0.64144734  0.17609852  0.54638470    -0.29600
H2171       H  0.60609012  0.18767191  0.51863484     0.14600
H2172       H  0.65138258  0.15838988  0.54642143     0.15200
C2173       C  0.69100729  0.20425184  0.46952051    -0.11200
C2174       C  0.71327049  0.20867928  0.49474921    -0.12800
C2175       C  0.60549993  0.23954826  0.62662727    -0.11200
C2176       C  0.58204009  0.24369830  0.61680862    -0.12800
C2177       C  0.97481482  0.12176853  0.37783166    -0.14400
C2178       C  0.94183198  0.11202900  0.37452774    -0.29600
H2179       H  0.99300698  0.14103356  0.40195188     0.14600
H2180       H  0.91373797  0.09744054  0.55138165     0.15200
C2181       C  0.95214446  0.17066794  0.50458189    -0.11200
C2182       C  0.97461300  0.19384737  0.52904999    -0.12800
C2183       C  0.83097787  0.05639170  0.64401218    -0.11200
C2184       C  0.80495830  0.02857052  0.62894065    -0.12800
C2185       C  0.89019607  0.09388075  0.83023897     0.82300
N2186       N  0.90739946  0.08768710  0.80348000    -0.76000
C2187       C  0.91523940  0.11782829  0.61160382     0.84700
N2188       N  0.93400187  0.13986205  0.64485133    -0.76000
C2189       C  0.91916457  0.13661121  0.67906957     0.84800
N2190       N  0.90821721  0.12174749  0.85934360    -0.77700
C2191       C  0.62498212  0.20892772  0.81776737     0.82300
N2192       N  0.64693779  0.21746837  0.85153869    -0.76000
C2193       C  0.67315734  0.21884135  0.64985089     0.84700
N2194       N  0.67082195  0.20205272  0.61394168    -0.76000
C2195       C  0.65204055  0.18302196  0.78604898     0.84800
N2196       N  0.62771397  0.19173407  0.78529185    -0.77700
C2197       C  0.74514930  0.07076952  0.66499244     0.82300
N2198       N  0.76433830  0.10768322  0.66205481    -0.76000
C2199       C  0.75831865  0.13180670  0.83883819     0.84700
N2200       N  0.74440441  0.11381180  0.80273663    -0.76000
C2201       C  0.70911487  0.06357336  0.60749479     0.84800
N2202       N  0.71743526  0.04914748  0.63785719    -0.77700
C2203       C  0.63285305  0.39058984  0.83249206     0.82300
N2204       N  0.61783856  0.36499582  0.65884425    -0.76000
C2205       C  0.58326827  0.34485114  0.66402267     0.85000
N2206       N  0.56006459  0.34466431  0.63651521    -0.76000
C2207       C  0.57067256  0.36386729  0.60410000     0.84800
N2208       N  0.60790819  0.38637274  0.80494566    -0.77700
C2209       C  0.93012920  0.26591497  0.86021160     0.82300
N2210       N  0.90871765  0.25671689  0.88981851    -0.76000
C2211       C  0.88635519  0.26647682  0.68193859     0.84700
N2212       N  0.88108533  0.27924145  0.64774009    -0.76000
C2213       C  0.90433667  0.29437268  0.82953228     0.84800
N2214       N  0.92740002  0.28433539  0.83061090    -0.77700
C2215       C  0.78086626  0.40576237  0.64460134     0.82300
N2216       N  0.79981948  0.42796577  0.61682514    -0.76000
C2217       C  0.81333418  0.41641298  0.58993572     0.84700
N2218       N  0.81287432  0.38938453  0.80010274    -0.76000
C2219       C  0.79942367  0.37084033  0.83176228     0.84800
N2220       N  0.77651059  0.37207875  0.64602563    -0.77700
O2221       O  0.02155292  0.03136876  0.69379300    -0.86300
C2222       C  0.56558362  0.05646583  0.56849161     0.89700
Mg2223     Mg  0.91847762  0.49330497  0.66311488     1.58100
O2224       O  0.56982449  0.97737433  0.67850214    -0.86000
O2225       O  0.55295111  0.03288572  0.64993797    -0.73400
C2226       C  0.90201862  0.35072687  0.55123389     0.94800
O2227       O  0.99753634  0.05908552  0.58342408    -0.73200
O2228       O  0.88911576  0.36968916  0.54525968    -0.80700
Mg2229     Mg  0.52708456  0.08593327  0.53278001     1.58000
C2230       C  0.53707202  0.39599391  0.73074721     0.94700
O2231       O  0.58246331  0.09772610  0.69415330    -0.78900
H2232       H  0.55415240  0.47532875  0.63709266    -0.04300
C2233       C  0.49841737  0.43406581  0.57238004     0.89600
O2234       O  0.91434039  0.44022042  0.63652813    -0.73500
O2235       O  0.55225970  0.05632350  0.53552202    -0.86200
O2236       O  0.55464184  0.42810627  0.72091452    -0.79000
C2237       C  0.63243226  0.03904374  0.53381319     0.94800
C2238       C  0.61476094  0.11434893  0.70021827     0.94700
Mg2239     Mg  0.47281410  0.40228103  0.70407024     1.58000
O2240       O  0.92963538  0.35784282  0.53697233    -0.78900
O2241       O  0.51248929  0.43496055  0.66084673    -0.73200
O2242       O  0.62218282  0.05877820  0.51944219    -0.79000
O2243       O  0.00853621  0.12765484  0.54577605    -0.80700
O2244       O  0.86459487  0.41444822  0.68710246    -0.79100
C2245       C  0.53890550  0.46703346  0.66195911     0.89100
O2246       O  0.93267735  0.42101892  0.68591236    -0.86200
O2247       O  0.50731409  0.44072624  0.53887696    -0.86300
O2248       O  0.96383192  0.42963108  0.58061052    -0.73400
Mg2249     Mg  0.59900725  0.03464837  0.68485970     1.58000
O2250       O  0.61223701  0.00517838  0.53505230    -0.80700
H2251       H  0.50728498  0.02743472  0.63312243    -0.04500
O2252       O  0.95385361  0.48538359  0.53202891    -0.86000
H2253       H  0.94604409  0.49597067  0.58654095    -0.04300
H2254       H  0.91695153  0.39500418  0.63128269    -0.04500
C2255       C  0.96237306  0.50543198  0.56276333     0.89100
C2256       C  0.52426294  0.02855025  0.65718934     0.89700
C2257       C  0.92140896  0.41772128  0.65053145     0.89700
H2258       H  0.51307298  0.42777918  0.59268569    -0.04400
O2259       O  0.56907465  0.03042792  0.57694671    -0.73500
Mg2260     Mg  0.92280730  0.42847352  0.53655707     1.58000
H2261       H  0.57411764  0.07893424  0.59056395    -0.04500
C2262       C  0.97672161  0.11200808  0.55038449     0.94700
O2263       O  0.86313564  0.46325371  0.68246813    -0.80700
C2264       C  0.85122124  0.43224930  0.69540047     0.94800
O2265       O  0.62983311  0.09707318  0.69725066    -0.80700
Mg2266     Mg  0.56126506  0.46646329  0.53434031     1.58200
O2267       O  0.95479416  0.07963576  0.53596012    -0.79000
O2268       O  0.50448630  0.37925083  0.72845211    -0.80700
C2269       C  0.54934600  0.23094027  0.79238194     0.88500
C2270       C  0.56621569  0.26437521  0.76872073    -0.51700
C2271       C  0.54433427  0.27345378  0.75212503     0.11500
C2272       C  0.00224279  0.25024906  0.77573907     0.22400
C2273       C  0.53129605  0.23902623  0.82401610    -0.52400
C2274       C  0.00344663  0.25176517  0.82196400     0.11600
C2275       C  0.51958604  0.20070857  0.76323707    -0.52000
C2276       C  0.99487369  0.21199541  0.76410413     0.12100
H2277       H  0.59323557  0.27861471  0.76359139     0.16700
H2278       H  0.98317368  0.25545692  0.76080850     0.02400
H2279       H  0.53471930  0.23605053  0.85549869     0.17000
H2280       H  0.51666288  0.17474191  0.75592410     0.16700
C2281       C  0.75724745  0.45786716  0.73043315     0.88500
C2282       C  0.72915124  0.43508869  0.75719172    -0.51700
C2283       C  0.72326713  0.45483839  0.78407430     0.11500
C2284       C  0.75873147  0.00131530  0.78456099     0.22400
C2285       C  0.74644603  0.48199639  0.71103156    -0.52400
C2286       C  0.75706111  0.00473372  0.73881932     0.11600
C2287       C  0.78930749  0.48477670  0.75912482    -0.52000
C2288       C  0.79577832  0.00984335  0.79500186     0.12100
H2289       H  0.71457320  0.40558835  0.75453159     0.16700
H2290       H  0.75299102  0.01922343  0.80182190     0.02400
H2291       H  0.74578833  0.48468807  0.67914321     0.17000
H2292       H  0.81470937  0.49030765  0.75543389     0.16700
C2293       C  0.74899265  0.23483282  0.73684772     0.88500
C2294       C  0.75909051  0.26880189  0.76301814    -0.51700
C2295       C  0.78633432  0.27994746  0.79078311     0.11500
C2296       C  0.80231178  0.25639730  0.78906903     0.22400
C2297       C  0.78163272  0.24361775  0.71808759    -0.52400
C2298       C  0.80955945  0.25424502  0.74500018     0.11600
C2299       C  0.74376085  0.20653291  0.76644868    -0.52000
C2300       C  0.77171698  0.21812728  0.79409823     0.12100
H2301       H  0.74492723  0.28232093  0.76074941     0.16700
H2302       H  0.82474984  0.26542708  0.81136734     0.02400
H2303       H  0.78218607  0.24019226  0.68617140     0.17000
H2304       H  0.72068951  0.17969983  0.76521942     0.16700
C2305       C  0.83033102  0.43919251  0.75876672    -0.14400
C2306       C  0.82681341  0.41882856  0.72565595    -0.29600
H2307       H  0.85239699  0.46889008  0.56828264     0.14600
H2308       H  0.80979588  0.38948191  0.72467700     0.15200
C2309       C  0.76918815  0.42024892  0.67505436    -0.11200
C2310       C  0.76309672  0.43610908  0.70047941    -0.12800
C2311       C  0.79754224  0.33691354  0.83342353    -0.11200
C2312       C  0.79561820  0.30981489  0.81971387    -0.12800
C2313       C  0.89872335  0.30007031  0.58134153    -0.14400
C2314       C  0.88713151  0.32225140  0.57882252    -0.29600
H2315       H  0.91415338  0.29955373  0.55868495     0.14600
H2316       H  0.86980714  0.33006354  0.81409589     0.15200
C2317       C  0.86406139  0.26152027  0.71293308    -0.11200
C2318       C  0.84105877  0.25871304  0.73148339    -0.12800
C2319       C  0.95598821  0.25682923  0.85747019    -0.11200
C2320       C  0.97837740  0.25413187  0.84387043    -0.12800
C2321       C  0.55613469  0.38055749  0.74804113    -0.14400
C2322       C  0.54751566  0.36317125  0.78138232    -0.29600
H2323       H  0.58192697  0.39157385  0.73938924     0.14600
H2324       H  0.51925175  0.35245824  0.58039832     0.15200
C2325       C  0.57008144  0.32222562  0.69748363    -0.11200
C2326       C  0.55668238  0.30100423  0.72298430    -0.12800
C2327       C  0.69515717  0.43599116  0.80963076    -0.11200
C2328       C  0.66867330  0.41576541  0.82473441    -0.12800
C2329       C  0.67738059  0.04129547  0.58018037    -0.14400
C2330       C  0.66803046  0.05670207  0.55220607    -0.29600
H2331       H  0.65977585  0.01326430  0.58612412     0.14600
H2332       H  0.68738366  0.00639455  0.77184704     0.15200
C2333       C  0.75294710  0.05330620  0.69647343    -0.11200
C2334       C  0.75502155  0.03288403  0.71868461    -0.12800
C2335       C  0.77011086  0.16967570  0.84019985    -0.11200
C2336       C  0.77292723  0.19509697  0.82342940    -0.12800
C2337       C  0.63242943  0.15140794  0.71892509    -0.14400
C2338       C  0.65144987  0.15905093  0.75383878    -0.29600
H2339       H  0.62118702  0.16727554  0.71166541     0.14600
H2340       H  0.66120700  0.14202154  0.76202866     0.15200
C2341       C  0.69741064  0.22175551  0.68201825    -0.11200
C2342       C  0.71937974  0.22497274  0.70709411    -0.12800
C2343       C  0.59786881  0.21666214  0.81577406    -0.11200
C2344       C  0.57488850  0.22218922  0.80809407    -0.12800
C2345       C  0.96493603  0.12951817  0.57711708    -0.14400
C2346       C  0.93117810  0.11624256  0.57631360    -0.29600
H2347       H  0.98281591  0.14818629  0.60177911     0.14600
H2348       H  0.94131346  0.07632646  0.75384463     0.15200
C2349       C  0.94133379  0.16123474  0.71360419    -0.11200
C2350       C  0.96477944  0.18416236  0.73756799    -0.12800
C2351       C  0.85311851  0.06881498  0.82763716    -0.11200
C2352       C  0.82429381  0.04297703  0.81681672    -0.12800
C2353       C  0.86057742  0.08561172  0.03918551     0.82300
N2354       N  0.87352460  0.08978322  0.00388401    -0.76000
C2355       C  0.94218984  0.10843906  0.80509359     0.84700
N2356       N  0.96025838  0.13613133  0.83412489    -0.76000
C2357       C  0.94335959  0.14324128  0.86092006     0.84800
N2358       N  0.88174065  0.10710324  0.07252761    -0.77700
C2359       C  0.62543645  0.21964520  0.03615954     0.82300
N2360       N  0.64616150  0.22027205  0.06749178    -0.76000
C2361       C  0.67132203  0.20858210  0.85223817     0.84700
N2362       N  0.67337136  0.19113638  0.81969246    -0.76000
C2363       C  0.64719144  0.19491440  0.99305079     0.84800
N2364       N  0.62615409  0.20700312  0.99944578    -0.77700
C2365       C  0.74199409  0.07622588  0.86581541     0.82300
N2366       N  0.75719698  0.11321195  0.87114803    -0.76000
C2367       C  0.74536624  0.11705743  0.04438992     0.84700
N2368       N  0.72049589  0.09415015  0.01557940    -0.76000
C2369       C  0.72900629  0.07769304  0.79732573     0.84800
N2370       N  0.72743879  0.05866397  0.82896555    -0.77700
C2371       C  0.62674336  0.38410501  0.03332423     0.82300
N2372       N  0.62352747  0.37149553  0.86570451    -0.76000
C2373       C  0.58917444  0.34866752  0.87056806     0.85000
N2374       N  0.56485333  0.34545429  0.84253096    -0.76000
C2375       C  0.57401924  0.36391793  0.80953817     0.84800
N2376       N  0.60097313  0.38131333  0.00846282    -0.77700
C2377       C  0.92710711  0.25911413  0.05140991     0.82300
N2378       N  0.90437639  0.24811592  0.07979550    -0.76000
C2379       C  0.88513432  0.26697615  0.88886417     0.84700
N2380       N  0.88331208  0.28598191  0.85876184    -0.76000
C2381       C  0.90450356  0.29182374  0.02410366     0.84800
N2382       N  0.92664278  0.28061411  0.02422100    -0.77700
C2383       C  0.78829333  0.41537121  0.85353873     0.82300
N2384       N  0.80286311  0.43432245  0.82157746    -0.76000
C2385       C  0.81455106  0.42070120  0.79431539     0.84700
N2386       N  0.81907960  0.38910840  0.00810185    -0.76000
C2387       C  0.80607303  0.36865355  0.03895498     0.84800
N2388       N  0.78635632  0.38330863  0.85838768    -0.77700
O2389       O  0.98924301  0.05244619  0.88281064    -0.86300
C2390       C  0.58858496  0.02700891  0.76955995     0.89700
Mg2391     Mg  0.92892278  0.50557499  0.88059653     1.58100
O2392       O  0.54612155  0.99481986  0.88551458    -0.86000
O2393       O  0.53463830  0.05549363  0.85055706    -0.73400
C2394       C  0.89869560  0.36021950  0.76415670     0.94800
O2395       O  0.02232112  0.02362735  0.78610300    -0.73200
O2396       O  0.88131733  0.37409758  0.75446861    -0.80700
Mg2397     Mg  0.55191788  0.06041177  0.74027003     1.58000
C2398       C  0.53091511  0.39411440  0.94079779     0.94700
O2399       O  0.56511382  0.12018989  0.89776461    -0.78900
H2400       H  0.55555951  0.46993936  0.84583400    -0.04300
C2401       C  0.48869650  0.44853278  0.77942570     0.89600
O2402       O  0.91984927  0.45293436  0.84576598    -0.73500
O2403       O  0.57630531  0.03053999  0.73758288    -0.86200
O2404       O  0.55089928  0.42708122  0.93473232    -0.79000
C2405       C  0.65303810  0.01187574  0.72826397     0.94800
C2406       C  0.59713405  0.13339689  0.90446268     0.94700
Mg2407     Mg  0.46962981  0.40435785  0.91085805     1.58000
O2408       O  0.92696248  0.37042207  0.75024102    -0.78900
O2409       O  0.51106836  0.43234312  0.86747933    -0.73200
O2410       O  0.64437398  0.03435531  0.71876966    -0.79000
O2411       O  0.03494492  0.09846420  0.75675134    -0.80700
O2412       O  0.87108927  0.42512999  0.89523313    -0.79100
C2413       C  0.53857920  0.46357791  0.86893325     0.89100
O2414       O  0.93621134  0.42648015  0.88808633    -0.86200
O2415       O  0.49934749  0.44670635  0.74765695    -0.86300
O2416       O  0.95156306  0.44907366  0.78031616    -0.73400
Mg2417     Mg  0.57653209  0.05259739  0.88915522     1.58000
O2418       O  0.63241592  0.97789249  0.72206830    -0.80700
H2419       H  0.49175446  0.05469062  0.82917906    -0.04500
O2420       O  0.93414075  0.48582980  0.71930361    -0.86000
H2421       H  0.92576776  0.50047943  0.77183519    -0.04300
H2422       H  0.91776421  0.40582796  0.83193122    -0.04500
C2423       C  0.94151518  0.50843363  0.74733687     0.89100
C2424       C  0.50610424  0.05283530  0.85455701     0.89700
C2425       C  0.92463684  0.42743000  0.85431598     0.89700
H2426       H  0.50568094  0.45664012  0.80604032    -0.04400
O2427       O  0.59071261  0.99946751  0.77406875    -0.73500
Mg2428     Mg  0.90816355  0.43085745  0.73309627     1.58000
H2429       H  0.59707958  0.04735159  0.79425214    -0.04500
C2430       C  0.00323963  0.08678890  0.75811688     0.94700
O2431       O  0.87331160  0.47625245  0.90073670    -0.80700
C2432       C  0.85914975  0.44315453  0.90798990     0.94800
O2433       O  0.60934136  0.11362207  0.89941761    -0.80700
Mg2434     Mg  0.55370646  0.47571013  0.74892658     1.58200
O2435       O  0.97991490  0.05541484  0.74268278    -0.79000
O2436       O  0.49844933  0.37909193  0.93714292    -0.80700
C2437       C  0.55398528  0.24254100  0.00813818     0.88500
C2438       C  0.57203765  0.27710962  0.98633313    -0.51700
C2439       C  0.55033106  0.28300780  0.96321889     0.11500
C2440       C  0.00819671  0.25250205  0.96970632     0.22400
C2441       C  0.52921126  0.24583873  0.03314338    -0.52400
C2442       C  0.00321020  0.24817202  0.01489309     0.11600
C2443       C  0.53062451  0.21214410  0.97505252    -0.52000
C2444       C  0.00536368  0.21728596  0.95449396     0.12100
H2445       H  0.59984997  0.29362799  0.98614455     0.16700
H2446       H  0.98997702  0.25784199  0.95276907     0.02400
H2447       H  0.52848070  0.24213621  0.06476587     0.17000
H2448       H  0.53217223  0.18844659  0.96920445     0.16700
C2449       C  0.75808242  0.46135502  0.93872126     0.88500
C2450       C  0.72611350  0.43543028  0.95905502    -0.51700
C2451       C  0.71693341  0.45234594  0.98569923     0.11500
C2452       C  0.73879150  0.99114391  0.97746192     0.22400
C2453       C  0.75010888  0.48771085  0.91965486    -0.52400
C2454       C  0.74140970  0.00149813  0.93371729     0.11600
C2455       C  0.78618204  0.48475530  0.97317021    -0.52000
C2456       C  0.77513614  0.99936259  0.99124606     0.12100
H2457       H  0.71232694  0.40608554  0.95347594     0.16700
H2458       H  0.73039341  0.00556366  0.99670709     0.02400
H2459       H  0.75347682  0.49365254  0.88870882     0.17000
H2460       H  0.81193097  0.48971218  0.97461211     0.16700
C2461       C  0.74515205  0.22860325  0.94307993     0.88500
C2462       C  0.75599031  0.26190248  0.97086002    -0.51700
C2463       C  0.78338052  0.27176257  0.99792601     0.11500
C2464       C  0.79797837  0.24688161  0.99456225     0.22400
C2465       C  0.77760965  0.23742502  0.92386188    -0.52400
C2466       C  0.80521252  0.24637525  0.95045205     0.11600
C2467       C  0.73884950  0.19875743  0.97069031    -0.52000
C2468       C  0.76662097  0.20825802  0.99771772     0.12100
H2469       H  0.74319996  0.27687035  0.96899100     0.16700
H2470       H  0.82036502  0.25471318  0.01642219     0.02400
H2471       H  0.77846663  0.23601636  0.89186528     0.17000
H2472       H  0.71508322  0.17224215  0.96831959     0.16700
C2473       C  0.83710540  0.44338033  0.97261204    -0.14400
C2474       C  0.83402101  0.42642583  0.93716769    -0.29600
H2475       H  0.84865615  0.46830962  0.76159133     0.14600
H2476       H  0.81763384  0.39696938  0.93342934     0.15200
C2477       C  0.77665290  0.43019607  0.88349559    -0.11200
C2478       C  0.76811420  0.44336510  0.90911739    -0.12800
C2479       C  0.80205889  0.33340466  0.03714849    -0.11200
C2480       C  0.79663521  0.30426233  0.02451607    -0.12800
C2481       C  0.90452701  0.31532823  0.79679835    -0.14400
C2482       C  0.88788269  0.33287058  0.79340152    -0.29600
H2483       H  0.92207474  0.31846543  0.77508509     0.14600
H2484       H  0.86784697  0.32507088  0.00645000     0.15200
C2485       C  0.86071322  0.25737342  0.91817593    -0.11200
C2486       C  0.83690632  0.25217588  0.93653367    -0.12800
C2487       C  0.95237792  0.24926722  0.04752582    -0.11200
C2488       C  0.97545087  0.24769074  0.03404433    -0.12800
C2489       C  0.54743625  0.37510225  0.95477029    -0.14400
C2490       C  0.54025887  0.35904433  0.98901208    -0.29600
H2491       H  0.57198654  0.38368141  0.94367425     0.14600
H2492       H  0.52218398  0.35310990  0.79105839     0.15200
C2493       C  0.57732723  0.32759922  0.90514761    -0.11200
C2494       C  0.56399099  0.30802736  0.93184038    -0.12800
C2495       C  0.68802632  0.43092157  0.00929126    -0.11200
C2496       C  0.66196188  0.40969032  0.02435295    -0.12800
C2497       C  0.70830319  0.06056449  0.75913593    -0.14400
C2498       C  0.68566420  0.02501472  0.75270269    -0.29600
H2499       H  0.70672494  0.07859136  0.73884518     0.14600
H2500       H  0.68318777  0.07652030  0.95162500     0.15200
C2501       C  0.74095192  0.05462302  0.89819776    -0.11200
C2502       C  0.73974208  0.03154273  0.91854797    -0.12800
C2503       C  0.76152483  0.15535367  0.03921968    -0.11200
C2504       C  0.76682305  0.18231456  0.02363495    -0.12800
C2505       C  0.61831309  0.16924774  0.92611578    -0.14400
C2506       C  0.64259738  0.17480301  0.95500586    -0.29600
H2507       H  0.60720499  0.18585982  0.92688587     0.14600
H2508       H  0.65323714  0.15774437  0.95470546     0.15200
C2509       C  0.69449794  0.21573272  0.88734972    -0.11200
C2510       C  0.71606740  0.22010377  0.91354530    -0.12800
C2511       C  0.60098115  0.23022830  0.04014077    -0.11200
C2512       C  0.57880175  0.23627055  0.03054641    -0.12800
C2513       C  0.99235715  0.10834377  0.78041889    -0.14400
C2514       C  0.95886370  0.09768802  0.77676192    -0.29600
H2515       H  0.01051479  0.12931026  0.80326796     0.14600
H2516       H  0.90159502  0.09162476  0.93988240     0.15200
C2517       C  0.96329045  0.17171436  0.89276436    -0.11200
C2518       C  0.98192081  0.19355335  0.92043090    -0.12800
C2519       C  0.82532892  0.05509400  0.03866338    -0.11200
C2520       C  0.79947548  0.02837704  0.02165646    -0.12800
C2521       C  0.88536697  0.59543729  0.23319981     0.82300
N2522       N  0.89946683  0.58952691  0.20244672    -0.76000
C2523       C  0.90921002  0.60888409  0.99065892     0.84700
N2524       N  0.93259084  0.63313134  0.02042619    -0.76000
C2525       C  0.92248832  0.63533074  0.05684023     0.84800
N2526       N  0.90619750  0.62271636  0.26229090    -0.77700
C2527       C  0.62534491  0.71299491  0.20998926     0.82300
N2528       N  0.65003938  0.72049716  0.24050372    -0.76000
C2529       C  0.65900548  0.70227122  0.03996682     0.84700
N2530       N  0.65418748  0.68349482  0.00451280    -0.76000
C2531       C  0.64317598  0.67986906  0.17316346     0.84800
N2532       N  0.62225610  0.69277686  0.17666834    -0.77700
C2533       C  0.74160316  0.57491281  0.07843750     0.82300
N2534       N  0.76036480  0.61168333  0.07490026    -0.76000
C2535       C  0.74182018  0.61013407  0.22474646     0.84700
N2536       N  0.72073925  0.58565718  0.19421666    -0.76000
C2537       C  0.70497749  0.56644650  0.02120077     0.84800
N2538       N  0.71386405  0.55265501  0.05166763    -0.77700
C2539       C  0.64208510  0.89427734  0.23715299     0.82300
N2540       N  0.61063691  0.86561786  0.04943803    -0.76000
C2541       C  0.57628259  0.84473829  0.05488883     0.85000
N2542       N  0.55250068  0.84376075  0.02754910    -0.76000
C2543       C  0.56245806  0.86276000  0.99481370     0.84800
N2544       N  0.62267679  0.89432564  0.20550796    -0.77700
C2545       C  0.92828324  0.74208975  0.24240778     0.82300
N2546       N  0.90926902  0.73806473  0.27392662    -0.76000
C2547       C  0.87875011  0.76353525  0.06477501     0.84700
N2548       N  0.87829878  0.78465106  0.03638542    -0.76000
C2549       C  0.89887962  0.76358564  0.20541625     0.84800
N2550       N  0.92227026  0.75429142  0.20894726    -0.77700
C2551       C  0.79779083  0.91253067  0.06418641     0.82300
N2552       N  0.81425872  0.93606776  0.03643517    -0.76000
C2553       C  0.82499900  0.92578697  0.00517924     0.84700
N2554       N  0.81598642  0.88009067  0.20705878    -0.76000
C2555       C  0.79803782  0.85708017  0.23403087     0.84800
N2556       N  0.79265832  0.87855347  0.06098156    -0.77700
O2557       O  0.00243099  0.52455830  0.08411820    -0.86300
C2558       C  0.55432201  0.55399513  0.96408881     0.89700
Mg2559     Mg  0.95294027  0.99858780  0.10198677     1.58100
O2560       O  0.54839860  0.47164620  0.07400183    -0.86000
O2561       O  0.52876932  0.52725033  0.04051074    -0.73400
C2562       C  0.90121802  0.86875815  0.95271002     0.94800
O2563       O  0.98048112  0.54258379  0.96619486    -0.73200
O2564       O  0.88607706  0.88557026  0.94618497    -0.80700
Mg2565     Mg  0.51276787  0.57290919  0.91407933     1.58000
C2566       C  0.52099826  0.87895788  0.13763349     0.94700
O2567       O  0.56239094  0.59528688  0.08060525    -0.78900
H2568       H  0.54904617  0.95624957  0.03888696    -0.04300
C2569       C  0.48686645  0.93996299  0.97257387     0.89600
O2570       O  0.93554216  0.94797391  0.05705787    -0.73500
O2571       O  0.54244044  0.54888576  0.92906934    -0.86200
O2572       O  0.54115688  0.90991947  0.12567468    -0.79000
C2573       C  0.62783158  0.53955585  0.94783687     0.94800
C2574       C  0.59462701  0.61090898  0.08584254     0.94700
Mg2575     Mg  0.46255461  0.89153846  0.10430256     1.58000
O2576       O  0.93041991  0.87964890  0.94075950    -0.78900
O2577       O  0.50445366  0.91945143  0.06117244    -0.73200
O2578       O  0.61788684  0.55674007  0.92669857    -0.79000
O2579       O  0.99125211  0.60480388  0.91478097    -0.80700
O2580       O  0.88914446  0.91979096  0.11208072    -0.79100
C2581       C  0.53245394  0.95031843  0.06234471     0.89100
O2582       O  0.94989962  0.91388347  0.08803821    -0.86200
O2583       O  0.49712756  0.94635832  0.93956935    -0.86300
O2584       O  0.95933144  0.95217264  0.98323516    -0.73400
Mg2585     Mg  0.57637318  0.53006945  0.07254807     1.58000
O2586       O  0.60757377  0.50704468  0.95552200    -0.80700
H2587       H  0.48401222  0.52441071  0.02566749    -0.04500
O2588       O  0.94830008  0.00360888  0.93804089    -0.86000
H2589       H  0.94142900  0.01014371  0.99470130    -0.04300
H2590       H  0.92725838  0.90030052  0.03216614    -0.04500
C2591       C  0.95713932  0.02156993  0.97050664     0.89100
C2592       C  0.50163560  0.52573214  0.04895086     0.89700
C2593       C  0.93738036  0.91973461  0.05789697     0.89700
H2594       H  0.50133540  0.93557175  0.99482722    -0.04400
O2595       O  0.55900667  0.53084924  0.97980098    -0.73500
Mg2596     Mg  0.91801586  0.94600045  0.93867557     1.58000
H2597       H  0.56047611  0.57827931  0.98170564    -0.04500
C2598       C  0.96025655  0.59107680  0.92218954     0.94700
O2599       O  0.89995197  0.97447219  0.12497407    -0.80700
C2600       C  0.88026454  0.94052751  0.12588237     0.94800
O2601       O  0.60847365  0.59288308  0.07936603    -0.80700
Mg2602     Mg  0.55145592  0.97140723  0.93813835     1.58200
O2603       O  0.93738436  0.55747752  0.91333377    -0.79000
O2604       O  0.48876310  0.86446740  0.13184939    -0.80700
C2605       C  0.55179879  0.73873935  0.19048577     0.88500
C2606       C  0.56699190  0.77156435  0.16564310    -0.51700
C2607       C  0.54355666  0.77817350  0.14801597     0.11500
C2608       C  0.00789544  0.74510261  0.15658451     0.22400
C2609       C  0.53240020  0.74586041  0.22140953    -0.52400
C2610       C  0.00892988  0.74316321  0.20288268     0.11600
C2611       C  0.52294900  0.70714901  0.16187867    -0.52000
C2612       C  0.00106178  0.70799875  0.14102135     0.12100
H2613       H  0.59389099  0.78672643  0.15998763     0.16700
H2614       H  0.98855237  0.75077018  0.14355868     0.02400
H2615       H  0.53593864  0.74364196  0.25307302     0.17000
H2616       H  0.52182531  0.68202346  0.15507096     0.16700
C2617       C  0.77043129  0.96038297  0.14858419     0.88500
C2618       C  0.74186550  0.93764879  0.17472883    -0.51700
C2619       C  0.73438045  0.95751216  0.19928721     0.11500
C2620       C  0.75464265  0.50175640  0.19313305     0.22400
C2621       C  0.75869924  0.98248848  0.12598725    -0.52400
C2622       C  0.75456439  0.50838490  0.14831087     0.11600
C2623       C  0.80118204  0.98859390  0.17769909    -0.52000
C2624       C  0.79134666  0.50942766  0.20407740     0.12100
H2625       H  0.72841253  0.90823334  0.17362518     0.16700
H2626       H  0.74887113  0.51873709  0.21185359     0.02400
H2627       H  0.75773778  0.98317405  0.09379355     0.17000
H2628       H  0.82688313  0.99352951  0.17745478     0.16700
C2629       C  0.73820798  0.72166890  0.12366090     0.88500
C2630       C  0.74779909  0.75341273  0.15345296    -0.51700
C2631       C  0.77540369  0.76326283  0.18026174     0.11500
C2632       C  0.79172680  0.74007612  0.17413390     0.22400
C2633       C  0.77091965  0.73313151  0.10384517    -0.52400
C2634       C  0.79890110  0.74173645  0.12946122     0.11600
C2635       C  0.73324339  0.69104394  0.14929259    -0.52000
C2636       C  0.76118071  0.70064493  0.17603128     0.12100
H2637       H  0.73355539  0.76685232  0.15364445     0.16700
H2638       H  0.81444418  0.74793251  0.19560811     0.02400
H2639       H  0.77164231  0.73368721  0.07190052     0.17000
H2640       H  0.70992200  0.66416219  0.14637378     0.16700
C2641       C  0.84625873  0.93898866  0.18027897    -0.14400
C2642       C  0.84877175  0.92405279  0.14606742    -0.29600
H2643       H  0.85989224  0.97964079  0.98316907     0.14600
H2644       H  0.83055709  0.89528392  0.13775974     0.15200
C2645       C  0.78608424  0.92443376  0.09660267    -0.11200
C2646       C  0.77843890  0.93900494  0.12144739    -0.12800
C2647       C  0.79068845  0.82042330  0.22778340    -0.11200
C2648       C  0.78602746  0.79289514  0.21066575    -0.12800
C2649       C  0.90098023  0.81719388  0.97641995    -0.14400
C2650       C  0.88658047  0.83704737  0.97643750    -0.29600
H2651       H  0.91863088  0.82122765  0.95448306     0.14600
H2652       H  0.87659028  0.80929988  0.19566035     0.15200
C2653       C  0.85346715  0.75282167  0.09369042    -0.11200
C2654       C  0.83016945  0.74765724  0.11338240    -0.12800
C2655       C  0.95785644  0.73830935  0.24210735    -0.11200
C2656       C  0.98219157  0.74050049  0.22683371    -0.12800
C2657       C  0.53540978  0.86177269  0.16201544    -0.14400
C2658       C  0.56962607  0.87789662  0.16820656    -0.29600
H2659       H  0.51861634  0.83955083  0.17916381     0.14600
H2660       H  0.51120469  0.85322137  0.97426351     0.15200
C2661       C  0.56440614  0.82292789  0.08910489    -0.11200
C2662       C  0.55340354  0.80319067  0.11631362    -0.12800
C2663       C  0.70633050  0.93912199  0.22436648    -0.11200
C2664       C  0.67900477  0.91879390  0.23729832    -0.12800
C2665       C  0.67328784  0.54373352  0.99446081    -0.14400
C2666       C  0.66336016  0.55854544  0.96633950    -0.29600
H2667       H  0.65627845  0.51569807  0.00082293     0.14600
H2668       H  0.68748982  0.56265959  0.12647094     0.15200
C2669       C  0.74996713  0.55815528  0.10992475    -0.11200
C2670       C  0.75231977  0.53730942  0.13092126    -0.12800
C2671       C  0.75627610  0.64803059  0.21818551    -0.11200
C2672       C  0.76142937  0.67475866  0.20209340    -0.12800
C2673       C  0.61376153  0.64688109  0.10785867    -0.14400
C2674       C  0.63665827  0.65398495  0.13919846    -0.29600
H2675       H  0.60256046  0.66333589  0.10515587     0.14600
H2676       H  0.64686664  0.63669057  0.14290964     0.15200
C2677       C  0.68569015  0.70782236  0.07010875    -0.11200
C2678       C  0.70855768  0.71257916  0.09464231    -0.12800
C2679       C  0.60099993  0.72467210  0.21219109    -0.11200
C2680       C  0.57859005  0.73149897  0.20633587    -0.12800
C2681       C  0.95181350  0.61319069  0.94702838    -0.14400
C2682       C  0.91912943  0.60055769  0.95322358    -0.29600
H2683       H  0.97256887  0.63570184  0.96636463     0.14600
H2684       H  0.92785228  0.57638486  0.14674789     0.15200
C2685       C  0.94823792  0.66081144  0.08826884    -0.11200
C2686       C  0.97183755  0.68240854  0.11261907    -0.12800
C2687       C  0.84873639  0.56971030  0.23478481    -0.11200
C2688       C  0.82005555  0.54293738  0.22541068    -0.12800
C2689       C  0.85720632  0.58826105  0.43111259     0.82300
N2690       N  0.87090828  0.58903950  0.39685824    -0.76000
C2691       C  0.93373791  0.60977364  0.19989159     0.84700
N2692       N  0.95462683  0.63683912  0.22871093    -0.76000
C2693       C  0.94100903  0.64391514  0.25961805     0.84800
N2694       N  0.87724872  0.61363876  0.46231967    -0.77700
C2695       C  0.62653854  0.72433063  0.41773987     0.82300
N2696       N  0.65049425  0.72724508  0.44635678    -0.76000
C2697       C  0.67112797  0.70738751  0.23717736     0.84700
N2698       N  0.66722569  0.68691987  0.20366455    -0.76000
C2699       C  0.64517943  0.69927522  0.37084105     0.84800
N2700       N  0.62436331  0.71065850  0.38063392    -0.77700
C2701       C  0.73021032  0.56162810  0.26383447     0.82300
N2702       N  0.74696667  0.59827191  0.26007901    -0.76000
C2703       C  0.74661264  0.61682034  0.42695434     0.84700
N2704       N  0.72175545  0.59653943  0.39712200    -0.76000
C2705       C  0.70439811  0.54958198  0.19798211     0.84800
N2706       N  0.70877427  0.53781339  0.23295775    -0.77700
C2707       C  0.63319041  0.88824133  0.43822239     0.82300
N2708       N  0.62643715  0.87131826  0.26605769    -0.76000
C2709       C  0.59113197  0.84874131  0.26243345     0.85000
N2710       N  0.57210928  0.84970654  0.23021247    -0.76000
C2711       C  0.58809554  0.87242337  0.20157852     0.84800
N2712       N  0.61130904  0.88639699  0.40801396    -0.77700
C2713       C  0.93146921  0.75799664  0.43896907     0.82300
N2714       N  0.91114949  0.75249907  0.46910828    -0.76000
C2715       C  0.88418087  0.74651193  0.26989505     0.84700
N2716       N  0.87999219  0.76004083  0.23585715    -0.76000
C2717       C  0.90643959  0.78490447  0.40356158     0.84800
N2718       N  0.92854270  0.77376174  0.40680294    -0.77700
C2719       C  0.79452996  0.90380944  0.26679372     0.82300
N2720       N  0.81347407  0.92681620  0.23949468    -0.76000
C2721       C  0.82378341  0.91470772  0.20914687     0.84700
N2722       N  0.82339774  0.88754363  0.40883735    -0.76000
C2723       C  0.80413526  0.86215636  0.43324380     0.84800
N2724       N  0.78681516  0.86870131  0.26410821    -0.77700
O2725       O  0.98997412  0.55168728  0.27993483    -0.86300
C2726       C  0.57236330  0.53107856  0.15946343     0.89700
Mg2727     Mg  0.95143726  0.01969061  0.30163239     1.58100
O2728       O  0.54154978  0.49936561  0.28054615    -0.86000
O2729       O  0.52392410  0.55397453  0.24767714    -0.73400
C2730       C  0.90866037  0.83934253  0.14858388     0.94800
O2731       O  0.01219749  0.52618530  0.17673591    -0.73200
O2732       O  0.89720066  0.85986450  0.14612039    -0.80700
Mg2733     Mg  0.53374933  0.56186476  0.12980916     1.58000
C2734       C  0.54490587  0.88169219  0.30873125     0.94700
O2735       O  0.55519830  0.62387570  0.27798037    -0.78900
H2736       H  0.55843334  0.96416636  0.21947714    -0.04300
C2737       C  0.48097448  0.94238319  0.17855114     0.89600
O2738       O  0.93750874  0.97053488  0.25623349    -0.73500
O2739       O  0.55762017  0.53123806  0.12757653    -0.86200
O2740       O  0.55783072  0.90985739  0.29050143    -0.79000
C2741       C  0.63557030  0.51519807  0.11481805     0.94800
C2742       C  0.58738715  0.63649121  0.28462649     0.94700
Mg2743     Mg  0.48103881  0.88484681  0.28821043     1.58000
O2744       O  0.93592717  0.84633415  0.13332707    -0.78900
O2745       O  0.51818731  0.92142198  0.24262588    -0.73200
O2746       O  0.62421449  0.53433265  0.10206030    -0.79000
O2747       O  0.01870827  0.59554220  0.13938338    -0.80700
O2748       O  0.89175762  0.93890394  0.30849715    -0.79100
C2749       C  0.54423789  0.95401001  0.24492121     0.89100
O2750       O  0.95113080  0.93615587  0.28819168    -0.86200
O2751       O  0.49158061  0.93700016  0.14816148    -0.86300
O2752       O  0.97509779  0.91355075  0.17994814    -0.73400
Mg2753     Mg  0.56926453  0.55600258  0.27737915     1.58000
O2754       O  0.61625623  0.48114365  0.11674793    -0.80700
H2755       H  0.49061211  0.51099599  0.27702925    -0.04500
O2756       O  0.96775952  0.97544693  0.14642571    -0.86000
H2757       H  0.97675976  0.97953580  0.20536412    -0.04300
H2758       H  0.93049800  0.92344327  0.23130935    -0.04500
C2759       C  0.98516263  0.99158755  0.17820775     0.89100
C2760       C  0.49601594  0.53505723  0.26292039     0.89700
C2761       C  0.93942805  0.94234037  0.25751365     0.89700
H2762       H  0.49738179  0.95309003  0.20567563    -0.04400
O2763       O  0.57563302  0.50466595  0.16654649    -0.73500
Mg2764     Mg  0.93339916  0.91873204  0.14476253     1.58000
H2765       H  0.58203310  0.55346955  0.18198646    -0.04500
C2766       C  0.98801456  0.58329457  0.14687619     0.94700
O2767       O  0.89747390  0.99054729  0.32486072    -0.80700
C2768       C  0.88075427  0.95632733  0.32509875     0.94800
O2769       O  0.59930079  0.61645213  0.27930946    -0.80700
Mg2770     Mg  0.54610695  0.96225681  0.14908342     1.58200
O2771       O  0.96408516  0.55040491  0.13712708    -0.79000
O2772       O  0.51272881  0.85912958  0.30289136    -0.80700
C2773       C  0.55150766  0.74276542  0.39644203     0.88500
C2774       C  0.56855585  0.77703455  0.37429146    -0.51700
C2775       C  0.54618724  0.78343837  0.35361547     0.11500
C2776       C  0.01490423  0.75513927  0.36340326     0.22400
C2777       C  0.52937341  0.74715720  0.42466754    -0.52400
C2778       C  0.01091348  0.75217669  0.40881425     0.11600
C2779       C  0.52561379  0.71234811  0.36424668    -0.52000
C2780       C  0.01126126  0.71924585  0.34925954     0.12100
H2781       H  0.59600149  0.79241448  0.37113895     0.16700
H2782       H  0.99643180  0.76016468  0.34653040     0.02400
H2783       H  0.53075433  0.74351771  0.45625987     0.17000
H2784       H  0.52609039  0.68821694  0.35679486     0.16700
C2785       C  0.76745403  0.95320564  0.35133894     0.88500
C2786       C  0.73710715  0.92991679  0.37537836    -0.51700
C2787       C  0.72808170  0.94929208  0.39857104     0.11500
C2788       C  0.73511868  0.48687707  0.38074379     0.22400
C2789       C  0.75706241  0.97570553  0.32758532    -0.52400
C2790       C  0.73803674  0.49531437  0.33662927     0.11600
C2791       C  0.79687279  0.98135559  0.38232756    -0.52000
C2792       C  0.77145637  0.49586471  0.39545226     0.12100
H2793       H  0.72344546  0.90047275  0.37355747     0.16700
H2794       H  0.72656807  0.50198062  0.39844024     0.02400
H2795       H  0.75824467  0.97727405  0.29563184     0.17000
H2796       H  0.82294797  0.98749131  0.38330331     0.16700
C2797       C  0.74943141  0.72654195  0.32323435     0.88500
C2798       C  0.76067807  0.76065182  0.34985268    -0.51700
C2799       C  0.78739470  0.77051599  0.37794927     0.11500
C2800       C  0.80188442  0.74524786  0.37578437     0.22400
C2801       C  0.78186048  0.73388619  0.30467076    -0.52400
C2802       C  0.80934993  0.74279929  0.33171869     0.11600
C2803       C  0.74259838  0.69743149  0.35234694    -0.52000
C2804       C  0.77023148  0.70722105  0.37986107     0.12100
H2805       H  0.74733095  0.77504496  0.34784711     0.16700
H2806       H  0.82391620  0.75310666  0.39824709     0.02400
H2807       H  0.78228557  0.73008815  0.27280624     0.17000
H2808       H  0.71853568  0.67121849  0.35067063     0.16700
C2809       C  0.85052206  0.94784019  0.38509052    -0.14400
C2810       C  0.85179994  0.93595229  0.34850236    -0.29600
H2811       H  0.86434988  0.96752916  0.18974298     0.14600
H2812       H  0.83481836  0.90722409  0.33889954     0.15200
C2813       C  0.78365850  0.91749937  0.29895315    -0.11200
C2814       C  0.77644373  0.93224949  0.32439048    -0.12800
C2815       C  0.79925905  0.82654943  0.42549406    -0.11200
C2816       C  0.79658836  0.80000540  0.40814814    -0.12800
C2817       C  0.90065489  0.78411057  0.17185713    -0.14400
C2818       C  0.89193734  0.80869403  0.17300802    -0.29600
H2819       H  0.91610356  0.78420458  0.14888657     0.14600
H2820       H  0.87869001  0.82559834  0.38969775     0.15200
C2821       C  0.86190542  0.74320338  0.30075536    -0.11200
C2822       C  0.83958354  0.74333716  0.31854825    -0.12800
C2823       C  0.95854269  0.75067563  0.43963223    -0.11200
C2824       C  0.98277544  0.75065893  0.42769159    -0.12800
C2825       C  0.56627331  0.88051147  0.34210519    -0.14400
C2826       C  0.55348543  0.86273347  0.37437434    -0.29600
H2827       H  0.59396855  0.89737503  0.34116668     0.14600
H2828       H  0.58578314  0.89965462  0.15011438     0.15200
C2829       C  0.57332554  0.82478663  0.29330824    -0.11200
C2830       C  0.55848209  0.80568019  0.31976939    -0.12800
C2831       C  0.69787731  0.93058286  0.42112403    -0.11200
C2832       C  0.67005226  0.91151638  0.43411055    -0.12800
C2833       C  0.67859959  0.52334855  0.16643323    -0.14400
C2834       C  0.67101920  0.53462125  0.13314292    -0.29600
H2835       H  0.66153199  0.49569105  0.17402022     0.14600
H2836       H  0.68080312  0.58611868  0.33815942     0.15200
C2837       C  0.73543061  0.54617216  0.29875894    -0.11200
C2838       C  0.73626746  0.52467944  0.31994784    -0.12800
C2839       C  0.76476017  0.65549529  0.42374753    -0.11200
C2840       C  0.77024608  0.68217709  0.40738175    -0.12800
C2841       C  0.60981852  0.67201778  0.30692781    -0.14400
C2842       C  0.63672549  0.67799349  0.33234872    -0.29600
H2843       H  0.59902452  0.68874889  0.31038116     0.14600
H2844       H  0.64737635  0.66109095  0.32924143     0.15200
C2845       C  0.69711767  0.71361748  0.26911311    -0.11200
C2846       C  0.71992043  0.71773947  0.29361095    -0.12800
C2847       C  0.60118322  0.73291972  0.42484314    -0.11200
C2848       C  0.57743608  0.73679448  0.41638051    -0.12800
C2849       C  0.97983265  0.60671278  0.16975542    -0.14400
C2850       C  0.94708458  0.59782290  0.16859261    -0.29600
H2851       H  0.99966664  0.62804540  0.19115040     0.14600
H2852       H  0.90108585  0.58777835  0.33546620     0.15200
C2853       C  0.96436173  0.67204585  0.29084546    -0.11200
C2854       C  0.98569234  0.69413997  0.31698763    -0.12800
C2855       C  0.82261305  0.55741782  0.43317879    -0.11200
C2856       C  0.79666745  0.52857483  0.42088105    -0.12800
C2857       C  0.86749327  0.58723040  0.60954277     0.82300
N2858       N  0.88192189  0.58593402  0.57668257    -0.76000
C2859       C  0.90397165  0.61434162  0.39264560     0.84700
N2860       N  0.92385573  0.63959689  0.42312697    -0.76000
C2861       C  0.91075441  0.63994305  0.45765534     0.84800
N2862       N  0.88749095  0.61245476  0.64068230    -0.77700
C2863       C  0.61522708  0.70688653  0.61859743     0.82300
N2864       N  0.63644360  0.71071105  0.65141995    -0.76000
C2865       C  0.67207686  0.71611396  0.43682001     0.84700
N2866       N  0.66894865  0.70161487  0.39916678    -0.76000
C2867       C  0.64421614  0.68846954  0.57862019     0.84800
N2868       N  0.61936926  0.69583171  0.58265125    -0.77700
C2869       C  0.73119547  0.56326017  0.45834078     0.82300
N2870       N  0.75173965  0.60037944  0.45821830    -0.76000
C2871       C  0.75191105  0.62087460  0.62638151     0.84700
N2872       N  0.73018130  0.59608095  0.59644900    -0.76000
C2873       C  0.70150564  0.56024719  0.39722323     0.84800
N2874       N  0.70602217  0.54366579  0.42801410    -0.77700
C2875       C  0.62098713  0.87971120  0.62107027     0.82300
N2876       N  0.61994921  0.86742915  0.46960162    -0.76000
C2877       C  0.58477361  0.84553687  0.47005171     0.85000
N2878       N  0.56358954  0.84449988  0.43925016    -0.76000
C2879       C  0.57669905  0.86477394  0.40820455     0.84800
N2880       N  0.59816717  0.88064121  0.59435612    -0.77700
C2881       C  0.92608844  0.76569416  0.63238984     0.82300
N2882       N  0.90347746  0.75562363  0.66091609    -0.76000
C2883       C  0.88801797  0.76333782  0.46574118     0.84700
N2884       N  0.88635835  0.78009802  0.43319938    -0.76000
C2885       C  0.90403785  0.79851306  0.60384059     0.84800
N2886       N  0.92563584  0.78657001  0.60430068    -0.77700
C2887       C  0.79389318  0.90439687  0.46530478     0.82300
N2888       N  0.81404992  0.92963549  0.44068415    -0.76000
C2889       C  0.82847215  0.92109403  0.41213061     0.84700
N2890       N  0.82992148  0.89601096  0.60371225    -0.76000
C2891       C  0.81202781  0.87032776  0.62871612     0.84800
N2892       N  0.78887628  0.87033702  0.46170372    -0.77700
O2893       O  0.99196960  0.52636884  0.47192040    -0.86300
C2894       C  0.55893978  0.56108549  0.36240701     0.89700
Mg2895     Mg  0.94683578  0.03263661  0.49596690     1.58100
O2896       O  0.55233833  0.48585509  0.48106020    -0.86000
O2897       O  0.53581878  0.54150099  0.44444009    -0.73400
C2898       C  0.91322435  0.86008924  0.34644982     0.94800
O2899       O  0.98164443  0.55110147  0.37347104    -0.73200
O2900       O  0.90071477  0.87979364  0.34523561    -0.80700
Mg2901     Mg  0.51639494  0.58720860  0.32086933     1.58000
C2902       C  0.53146736  0.89892712  0.51832258     0.94700
O2903       O  0.56769472  0.61157554  0.48880550    -0.78900
H2904       H  0.54495191  0.98540302  0.42712074    -0.04300
C2905       C  0.50359855  0.92043675  0.37009628     0.89600
O2906       O  0.93818100  0.98437933  0.45270962    -0.73500
O2907       O  0.54566539  0.55978099  0.32890545    -0.86200
O2908       O  0.54856089  0.92952191  0.50460305    -0.79000
C2909       C  0.62715604  0.54138394  0.32562857     0.94800
C2910       C  0.59990953  0.62556350  0.49230722     0.94700
Mg2911     Mg  0.47081657  0.91270193  0.50111993     1.58000
O2912       O  0.94118106  0.86905641  0.33154115    -0.78900
O2913       O  0.50656098  0.94499299  0.45418922    -0.73200
O2914       O  0.61774080  0.56152090  0.31046895    -0.79000
O2915       O  0.99725549  0.61904699  0.33268548    -0.80700
O2916       O  0.88859598  0.95164305  0.49727253    -0.79100
C2917       C  0.53331855  0.97662118  0.45423360     0.89100
O2918       O  0.95107938  0.95169197  0.48920352    -0.86200
O2919       O  0.51154943  0.92627129  0.33591486    -0.86300
O2920       O  0.97738272  0.93670237  0.38107018    -0.73400
Mg2921     Mg  0.58081503  0.54384446  0.48118036     1.58000
O2922       O  0.60597259  0.50844559  0.33063941    -0.80700
H2923       H  0.49208162  0.53954584  0.42725888    -0.04500
O2924       O  0.96775937  0.99692242  0.34551382    -0.86000
H2925       H  0.97791011  0.99964328  0.40407391    -0.04300
H2926       H  0.93567647  0.93872564  0.43080959    -0.04500
C2927       C  0.98499312  0.01299387  0.37734151     0.89100
C2928       C  0.50838760  0.54008364  0.45128342     0.89700
C2929       C  0.94169121  0.95735446  0.45649518     0.89700
H2930       H  0.52133547  0.92017869  0.39260126    -0.04400
O2931       O  0.56345540  0.53594092  0.37210132    -0.73500
Mg2932     Mg  0.93481790  0.93956472  0.34433304     1.58000
H2933       H  0.56681206  0.58389683  0.38370721    -0.04500
C2934       C  0.96513692  0.60426978  0.33479579     0.94700
O2935       O  0.89047210  0.00108584  0.51400917    -0.80700
C2936       C  0.87614116  0.96700659  0.51477572     0.94800
O2937       O  0.61235909  0.60590269  0.48768940    -0.80700
Mg2938     Mg  0.56545622  0.95661277  0.32862225     1.58200
O2939       O  0.94326104  0.57200920  0.32015193    -0.79000
O2940       O  0.49920185  0.88383708  0.51842637    -0.80700
C2941       C  0.53996257  0.72781632  0.59356751     0.88500
C2942       C  0.55879750  0.76311182  0.57346761    -0.51700
C2943       C  0.53794573  0.77210883  0.55389667     0.11500
C2944       C  0.00105453  0.75477769  0.54896722     0.22400
C2945       C  0.51761806  0.73244974  0.62202942    -0.52400
C2946       C  0.00081700  0.75326502  0.59486801     0.11600
C2947       C  0.51402461  0.69946887  0.56004003    -0.52000
C2948       C  0.99182062  0.71639268  0.53484431     0.12100
H2949       H  0.58650350  0.77831881  0.57207563     0.16700
H2950       H  0.98318275  0.76202781  0.53490955     0.02400
H2951       H  0.51790249  0.72751875  0.65330465     0.17000
H2952       H  0.51370061  0.67525988  0.55094783     0.16700
C2953       C  0.76132033  0.95082700  0.54604196     0.88500
C2954       C  0.72900481  0.92665303  0.56653461    -0.51700
C2955       C  0.71867275  0.94513386  0.58891270     0.11500
C2956       C  0.73986905  0.48560624  0.57043074     0.22400
C2957       C  0.75323153  0.97507477  0.52213367    -0.52400
C2958       C  0.73588370  0.49013963  0.52537414     0.11600
C2959       C  0.78885135  0.97720230  0.57978088    -0.52000
C2960       C  0.77771405  0.49660979  0.57785078     0.12100
H2961       H  0.71489814  0.89717936  0.56282130     0.16700
H2962       H  0.73340357  0.50178012  0.58979558     0.02400
H2963       H  0.75651350  0.97805864  0.49065787     0.17000
H2964       H  0.81469319  0.98266018  0.58328286     0.16700
C2965       C  0.74947647  0.73068721  0.52034891     0.88500
C2966       C  0.76023064  0.76417191  0.54802441    -0.51700
C2967       C  0.78750340  0.77419556  0.57539161     0.11500
C2968       C  0.80217165  0.74929776  0.57215997     0.22400
C2969       C  0.78203283  0.73950970  0.50130455    -0.52400
C2970       C  0.80967520  0.74872628  0.52803250     0.11600
C2971       C  0.74320112  0.70098994  0.54824112    -0.52000
C2972       C  0.77085668  0.71062932  0.57551179     0.12100
H2973       H  0.74715355  0.77884168  0.54618640     0.16700
H2974       H  0.82432027  0.75702286  0.59413570     0.02400
H2975       H  0.78284228  0.73759738  0.46930461     0.17000
H2976       H  0.71942460  0.67449810  0.54599959     0.16700
C2977       C  0.85400429  0.95679650  0.58055762    -0.14400
C2978       C  0.85130037  0.94547373  0.54239791    -0.29600
H2979       H  0.86782900  0.97610822  0.39627772     0.14600
H2980       H  0.83529674  0.91651357  0.53372823     0.15200
C2981       C  0.77969130  0.91542974  0.49608044    -0.11200
C2982       C  0.77134497  0.93012491  0.52020049    -0.12800
C2983       C  0.80563936  0.83427964  0.61961663    -0.11200
C2984       C  0.79981457  0.80591709  0.60338018    -0.12800
C2985       C  0.90941151  0.80671030  0.37049731    -0.14400
C2986       C  0.89689202  0.82809191  0.36927906    -0.29600
H2987       H  0.92736815  0.80947579  0.34952317     0.14600
H2988       H  0.87459358  0.83927716  0.59274781     0.15200
C2989       C  0.86455774  0.75744398  0.49560264    -0.11200
C2990       C  0.84133415  0.75396796  0.51416772    -0.12800
C2991       C  0.95167115  0.75599649  0.62975329    -0.11200
C2992       C  0.97474684  0.75409913  0.61664131    -0.12800
C2993       C  0.55053304  0.88397883  0.53780033    -0.14400
C2994       C  0.53948198  0.86296146  0.56853274    -0.29600
H2995       H  0.57701077  0.89585458  0.53125385     0.14600
H2996       H  0.52583101  0.84653910  0.37588498     0.15200
C2997       C  0.56878325  0.82194631  0.50180793    -0.11200
C2998       C  0.55277278  0.79998809  0.52558121    -0.12800
C2999       C  0.68642019  0.92505998  0.60745392    -0.11200
C3000       C  0.65766836  0.90439555  0.61733718    -0.12800
C3001       C  0.67161904  0.54000604  0.36745455    -0.14400
C3002       C  0.66304341  0.55750079  0.34164088    -0.29600
H3003       H  0.65361985  0.51152989  0.37135231     0.14600
H3004       H  0.69134424  0.57380093  0.53299957     0.15200
C3005       C  0.73525928  0.54323493  0.48943813    -0.11200
C3006       C  0.73496486  0.52026231  0.50917070    -0.12800
C3007       C  0.76610471  0.65866829  0.61913996    -0.11200
C3008       C  0.77084252  0.68500580  0.60237433    -0.12800
C3009       C  0.62150922  0.66309703  0.50985607    -0.14400
C3010       C  0.64439894  0.67023156  0.54117857    -0.29600
H3011       H  0.60989126  0.67920503  0.50783229     0.14600
H3012       H  0.65605373  0.65418261  0.54359684     0.15200
C3013       C  0.69765944  0.71858346  0.46662384    -0.11200
C3014       C  0.72011062  0.72185961  0.49086661    -0.12800
C3015       C  0.58771875  0.71373499  0.62027084    -0.11200
C3016       C  0.56463139  0.71898137  0.61208447    -0.12800
C3017       C  0.95280652  0.62282593  0.35896800    -0.14400
C3018       C  0.91892104  0.60905148  0.35832285    -0.29600
H3019       H  0.97094092  0.64390673  0.38175068     0.14600
H3020       H  0.91159808  0.58076394  0.51690445     0.15200
C3021       C  0.93459060  0.66667582  0.48936705    -0.11200
C3022       C  0.95990743  0.68984306  0.51065511    -0.12800
C3023       C  0.83197886  0.55833987  0.61101954    -0.11200
C3024       C  0.80488097  0.53014141  0.60033343    -0.12800
C3025       C  0.87790215  0.59387308  0.81998325     0.82300
N3026       N  0.89405854  0.59428902  0.78790368    -0.76000
C3027       C  0.91583239  0.60880818  0.57394777     0.84700
N3028       N  0.93599813  0.63398239  0.60476660    -0.76000
C3029       C  0.92187755  0.63649787  0.63787491     0.84800
N3030       N  0.89622141  0.61901301  0.85186108    -0.77700
C3031       C  0.61493650  0.71125073  0.82664410     0.82300
N3032       N  0.63989405  0.71672355  0.85569420    -0.76000
C3033       C  0.66144271  0.70311357  0.64744272     0.84700
N3034       N  0.66489959  0.69182210  0.61117525    -0.76000
C3035       C  0.62921029  0.67766031  0.78541866     0.84800
N3036       N  0.61008776  0.69196420  0.79215817    -0.77700
C3037       C  0.74016946  0.57277703  0.66634647     0.82300
N3038       N  0.75705052  0.60938811  0.66204315    -0.76000
C3039       C  0.75319921  0.62746802  0.84017607     0.84700
N3040       N  0.72716601  0.60435219  0.81263738    -0.76000
C3041       C  0.71344622  0.56007940  0.60080245     0.84800
N3042       N  0.71841613  0.54867319  0.63578788    -0.77700
C3043       C  0.64081404  0.89614754  0.83125645     0.82300
N3044       N  0.60899195  0.85627503  0.65038148    -0.76000
C3045       C  0.57418954  0.83388033  0.65235948     0.85000
N3046       N  0.55183837  0.83572081  0.62532064    -0.76000
C3047       C  0.56368207  0.85889322  0.59609073     0.84800
N3048       N  0.61798196  0.89034311  0.79999398    -0.77700
C3049       C  0.91881449  0.75087980  0.83970919     0.82300
N3050       N  0.89955702  0.74122019  0.87174111    -0.76000
C3051       C  0.88109308  0.76756566  0.66054269     0.84700
N3052       N  0.88216469  0.78958713  0.63232870    -0.76000
C3053       C  0.89446315  0.78379713  0.81814441     0.84800
N3054       N  0.91569069  0.77176092  0.81372684    -0.77700
C3055       C  0.80391497  0.91227270  0.66477068     0.82300
N3056       N  0.82259716  0.93783954  0.63982685    -0.76000
C3057       C  0.83530623  0.92972013  0.60902928     0.84700
N3058       N  0.82453591  0.89039104  0.80124743    -0.76000
C3059       C  0.80354541  0.86730930  0.82624320     0.84800
N3060       N  0.79842380  0.87824037  0.65923842    -0.77700
O3061       O  0.97273707  0.52494562  0.65523727    -0.86300
C3062       C  0.57114815  0.54296131  0.56788234     0.89700
Mg3063     Mg  0.96782275  0.00702605  0.70233683     1.58100
O3064       O  0.54753651  0.48898387  0.69103397    -0.86000
O3065       O  0.52545979  0.53341668  0.64554603    -0.73400
C3066       C  0.90916533  0.87547367  0.54984252     0.94800
O3067       O  0.98970459  0.53690139  0.56634855    -0.73200
O3068       O  0.89505586  0.89346488  0.54485504    -0.80700
Mg3069     Mg  0.53433839  0.57506644  0.53442167     1.58000
C3070       C  0.55021985  0.87962403  0.70013795     0.94700
O3071       O  0.54961561  0.60366667  0.67444620    -0.78900
H3072       H  0.57064291  0.97146861  0.61967645    -0.04300
C3073       C  0.49561896  0.95786432  0.57946209     0.89600
O3074       O  0.95107918  0.95789754  0.65640013    -0.73500
O3075       O  0.55925883  0.54505073  0.53487734    -0.86200
O3076       O  0.56436500  0.90823506  0.68299169    -0.79000
C3077       C  0.63836142  0.52780731  0.52605216     0.94800
C3078       C  0.58115044  0.61954664  0.68804906     0.94700
Mg3079     Mg  0.49051133  0.89061989  0.68469052     1.58000
O3080       O  0.93808307  0.88576807  0.53734691    -0.78900
O3081       O  0.52912382  0.92913047  0.64156700    -0.73200
O3082       O  0.62782979  0.54753507  0.51283244    -0.79000
O3083       O  0.00262075  0.59960694  0.51352890    -0.80700
O3084       O  0.90153028  0.92639518  0.70984159    -0.79100
C3085       C  0.55741130  0.96008623  0.64559063     0.89100
O3086       O  0.96569788  0.92410956  0.68683575    -0.86200
O3087       O  0.50325059  0.95512754  0.54585855    -0.86300
O3088       O  0.96970664  0.95803381  0.58323759    -0.73400
Mg3089     Mg  0.57166516  0.54465915  0.68381007     1.58000
O3090       O  0.61807436  0.49417835  0.52975821    -0.80700
H3091       H  0.49411538  0.49409527  0.68017201    -0.04500
O3092       O  0.95990556  0.01165197  0.54359582    -0.86000
H3093       H  0.95520543  0.01529342  0.60172755    -0.04300
H3094       H  0.94198151  0.90980848  0.63156116    -0.04500
C3095       C  0.96990218  0.02799168  0.57713638     0.89100
C3096       C  0.49797471  0.51558323  0.66202990     0.89700
C3097       C  0.95265075  0.92958705  0.65707865     0.89700
H3098       H  0.51400486  0.96542270  0.60456319    -0.04400
O3099       O  0.57326474  0.51583146  0.57501155    -0.73500
Mg3100     Mg  0.92833999  0.95415984  0.54084468     1.58000
H3101       H  0.57924099  0.56427355  0.59133073    -0.04500
C3102       C  0.97161391  0.58661743  0.52021205     0.94700
O3103       O  0.91308610  0.98195529  0.72071334    -0.80700
C3104       C  0.89294213  0.94800817  0.72208734     0.94800
O3105       O  0.59829831  0.60561761  0.67946678    -0.80700
Mg3106     Mg  0.55634463  0.97924046  0.53944195     1.58200
O3107       O  0.94855890  0.55308988  0.51214087    -0.79000
O3108       O  0.51776451  0.85904242  0.69470928    -0.80700
C3109       C  0.54487611  0.73741243  0.79880265     0.88500
C3110       C  0.56132032  0.76884418  0.77216046    -0.51700
C3111       C  0.53846706  0.77409140  0.75046839     0.11500
C3112       C  0.99539711  0.74416724  0.74579076     0.22400
C3113       C  0.52432352  0.74563815  0.82621542    -0.52400
C3114       C  0.99309781  0.74162259  0.79184061     0.11600
C3115       C  0.51721429  0.70463852  0.77010771    -0.52000
C3116       C  0.99080345  0.70794608  0.73094039     0.12100
H3117       H  0.58841472  0.78299452  0.76741802     0.16700
H3118       H  0.97661490  0.74944213  0.73018662     0.02400
H3119       H  0.52627294  0.74423681  0.85826108     0.17000
H3120       H  0.51692715  0.67976436  0.76545306     0.16700
C3121       C  0.77262606  0.95949196  0.74370451     0.88500
C3122       C  0.74226517  0.93847230  0.76815131    -0.51700
C3123       C  0.73444604  0.95968988  0.78982362     0.11500
C3124       C  0.74700360  0.49687714  0.78162298     0.22400
C3125       C  0.76352148  0.98204879  0.71792822    -0.52400
C3126       C  0.74207885  0.50334146  0.73741545     0.11600
C3127       C  0.80259574  0.98761189  0.77362490    -0.52000
C3128       C  0.78425378  0.50529547  0.78606505     0.12100
H3129       H  0.72788490  0.90907205  0.76805090     0.16700
H3130       H  0.74259088  0.51353833  0.80305419     0.02400
H3131       H  0.76421501  0.98167758  0.68586942     0.17000
H3132       H  0.82804833  0.99172417  0.77531423     0.16700
C3133       C  0.74133744  0.72424138  0.72918503     0.88500
C3134       C  0.75259042  0.75884307  0.75476672    -0.51700
C3135       C  0.78235665  0.77215014  0.77876097     0.11500
C3136       C  0.79940884  0.74966161  0.77386988     0.22400
C3137       C  0.77176078  0.73335986  0.70540589    -0.52400
C3138       C  0.80227602  0.74614548  0.72828883     0.11600
C3139       C  0.74035130  0.69772697  0.75883160    -0.52000
C3140       C  0.77087716  0.71104012  0.78239796     0.12100
H3141       H  0.73746970  0.77131798  0.75487449     0.16700
H3142       H  0.82384559  0.76044759  0.79309087     0.02400
H3143       H  0.76910908  0.72900788  0.67313792     0.17000
H3144       H  0.71768120  0.67098084  0.76098511     0.16700
C3145       C  0.85613371  0.94817355  0.77281417    -0.14400
C3146       C  0.86055282  0.93233116  0.74061116    -0.29600
H3147       H  0.87069387  0.98533786  0.59100742     0.14600
H3148       H  0.84256948  0.90342368  0.73289379     0.15200
C3149       C  0.78987332  0.92217568  0.69624183    -0.11200
C3150       C  0.78099176  0.93670239  0.71952739    -0.12800
C3151       C  0.79704663  0.83097242  0.82224539    -0.11200
C3152       C  0.79332168  0.80332967  0.80685490    -0.12800
C3153       C  0.90750945  0.82300115  0.57345734    -0.14400
C3154       C  0.89360917  0.84330355  0.57285349    -0.29600
H3155       H  0.92603962  0.82733489  0.55260317     0.14600
H3156       H  0.91495497  0.79192353  0.74729354     0.15200
C3157       C  0.85564731  0.75751286  0.68926036    -0.11200
C3158       C  0.83278247  0.75246742  0.70970115    -0.12800
C3159       C  0.94382523  0.74139736  0.83087979    -0.11200
C3160       C  0.96605650  0.74070164  0.81368656    -0.12800
C3161       C  0.57129859  0.87669785  0.73248268    -0.14400
C3162       C  0.55939453  0.86163709  0.76630133    -0.29600
H3163       H  0.59882490  0.89163991  0.72999682     0.14600
H3164       H  0.51327501  0.85154027  0.57590259     0.15200
C3165       C  0.56059593  0.81085300  0.68541681    -0.11200
C3166       C  0.54888346  0.79374532  0.71436242    -0.12800
C3167       C  0.70470425  0.94225671  0.81337092    -0.11200
C3168       C  0.67731861  0.92215612  0.82693758    -0.12800
C3169       C  0.68499654  0.53409637  0.57129799    -0.14400
C3170       C  0.67480186  0.54607060  0.54065251    -0.29600
H3171       H  0.66817255  0.50664058  0.57957711     0.14600
H3172       H  0.68255204  0.58767994  0.75534293     0.15200
C3173       C  0.74404804  0.55752777  0.70229905    -0.11200
C3174       C  0.74284453  0.53504768  0.72358579    -0.12800
C3175       C  0.77113449  0.66513292  0.83162301    -0.11200
C3176       C  0.77508876  0.68965783  0.81194261    -0.12800
C3177       C  0.59492966  0.64816126  0.72091480    -0.14400
C3178       C  0.62119782  0.65493262  0.74794147    -0.29600
H3179       H  0.58038515  0.66082207  0.72554185     0.14600
H3180       H  0.63509961  0.64144918  0.74396679     0.15200
C3181       C  0.68517361  0.70720630  0.68068545    -0.11200
C3182       C  0.70888058  0.71205839  0.70386796    -0.12800
C3183       C  0.59258253  0.72492108  0.82998200    -0.11200
C3184       C  0.57069527  0.73146455  0.81989248    -0.12800
C3185       C  0.96274462  0.60952223  0.54253109    -0.14400
C3186       C  0.93007715  0.60067381  0.54048600    -0.29600
H3187       H  0.98135565  0.62833748  0.56657941     0.14600
H3188       H  0.97252766  0.62381872  0.76073945     0.15200
C3189       C  0.94441957  0.66259256  0.67108619    -0.11200
C3190       C  0.96516631  0.68352425  0.69834716    -0.12800
C3191       C  0.84184551  0.56484790  0.81913920    -0.11200
C3192       C  0.81372744  0.53776015  0.80816628    -0.12800
C3193       C  0.86573243  0.58794054  0.03367671     0.82300
N3194       N  0.87618730  0.58672122  0.99771791    -0.76000
C3195       C  0.92803604  0.61898775  0.78672150     0.84700
N3196       N  0.94631022  0.64363850  0.81840446    -0.76000
C3197       C  0.93062578  0.64435179  0.85073095     0.84800
N3198       N  0.88891900  0.61213346  0.06383069    -0.77700
C3199       C  0.61279746  0.70871169  0.01851876     0.82300
N3200       N  0.63820423  0.71496815  0.04707448    -0.76000
C3201       C  0.65954272  0.70226355  0.84935387     0.84700
N3202       N  0.65394595  0.68267979  0.81415941    -0.76000
C3203       C  0.62903281  0.67774989  0.97603188     0.84800
N3204       N  0.60859375  0.69037070  0.98345770    -0.77700
C3205       C  0.73885586  0.57830151  0.87940037     0.82300
N3206       N  0.75942511  0.61471348  0.87429675    -0.76000
C3207       C  0.75083803  0.62508268  0.04393103     0.84700
N3208       N  0.72354169  0.60236314  0.01782323    -0.76000
C3209       C  0.70701078  0.56876087  0.81769567     0.84800
N3210       N  0.71283802  0.55584854  0.85107084    -0.77700
C3211       C  0.62070568  0.88517219  0.01672378     0.82300
N3212       N  0.62886885  0.87698058  0.86408571    -0.76000
C3213       C  0.59398973  0.85268817  0.86472047     0.85000
N3214       N  0.57185629  0.84785010  0.83286583    -0.76000
C3215       C  0.58368882  0.86640704  0.80043295     0.84800
N3216       N  0.59646362  0.88331430  0.98992236    -0.77700
C3217       C  0.92421110  0.76340778  0.03554678     0.82300
N3218       N  0.90209415  0.75284885  0.06470712    -0.76000
C3219       C  0.87788991  0.75379373  0.87626575     0.84700
N3220       N  0.87607983  0.77530415  0.84961280    -0.76000
C3221       C  0.89961373  0.79401034  0.00733151     0.84800
N3222       N  0.92224952  0.78342594  0.00733529    -0.77700
C3223       C  0.79454587  0.91283299  0.85114718     0.82300
N3224       N  0.81668037  0.93603997  0.82591914    -0.76000
C3225       C  0.83125330  0.92445339  0.80035384     0.84700
N3226       N  0.81999862  0.89219229  0.00230742    -0.76000
C3227       C  0.80432440  0.86863062  0.02997514     0.84800
N3228       N  0.78798520  0.87820898  0.85124751    -0.77700
O3229       O  0.98316191  0.53346601  0.87252349    -0.86300
C3230       C  0.55338488  0.55008256  0.76670348     0.89700
Mg3231     Mg  0.93508746  0.02210562  0.88827646     1.58100
O3232       O  0.54568627  0.48705230  0.89573162    -0.86000
O3233       O  0.52210258  0.52466610  0.84164936    -0.73400
C3234       C  0.92354266  0.84439911  0.73721988     0.94800
O3235       O  0.96759565  0.54061026  0.74822203    -0.73200
O3236       O  0.91162075  0.86463307  0.73903901    -0.80700
Mg3237     Mg  0.51006199  0.57013055  0.71631042     1.58000
C3238       C  0.52722178  0.89359646  0.91051765     0.94700
O3239       O  0.54905229  0.60183039  0.86805183    -0.78900
H3240       H  0.54820415  0.98676891  0.82755902    -0.04300
C3241       C  0.51422383  0.91920968  0.76841912     0.89600
O3242       O  0.92862571  0.97288146  0.84821144    -0.73500
O3243       O  0.54303889  0.54793149  0.73144836    -0.86200
O3244       O  0.54426445  0.92474553  0.89817016    -0.79000
C3245       C  0.63026996  0.53995607  0.74372727     0.94800
C3246       C  0.58076479  0.61780377  0.88027346     0.94700
Mg3247     Mg  0.46730459  0.90740695  0.89145732     1.58000
O3248       O  0.95093362  0.85326494  0.72186087    -0.78900
O3249       O  0.50747965  0.94455248  0.85010965    -0.73200
O3250       O  0.61977619  0.55712314  0.72376588    -0.79000
O3251       O  0.97319978  0.59494042  0.68906731    -0.80700
O3252       O  0.87777521  0.94077766  0.89391143    -0.79100
C3253       C  0.53471484  0.97619981  0.85333974     0.89100
O3254       O  0.94148710  0.94176890  0.88782856    -0.86200
O3255       O  0.52303202  0.92723373  0.73486478    -0.86300
O3256       O  0.98700258  0.91976489  0.77866013    -0.73400
Mg3257     Mg  0.56961403  0.54200916  0.88393609     1.58000
O3258       O  0.61036863  0.50720121  0.75087923    -0.80700
H3259       H  0.47518307  0.50499322  0.81450264    -0.04500
O3260       O  0.97787236  0.98110177  0.74799212    -0.86000
H3261       H  0.98077027  0.98188973  0.80706584    -0.04300
H3262       H  0.92787461  0.92746649  0.82926013    -0.04500
C3263       C  0.99267489  0.99503398  0.78136099     0.89100
C3264       C  0.49231042  0.51987016  0.84010782     0.89700
C3265       C  0.93267476  0.94642706  0.85413399     0.89700
H3266       H  0.53048193  0.91566660  0.78999946    -0.04400
O3267       O  0.55815544  0.52604650  0.77996205    -0.73500
Mg3268     Mg  0.94559183  0.92442343  0.74243317     1.58000
H3269       H  0.55803429  0.57251801  0.78666910    -0.04500
C3270       C  0.94166397  0.57809404  0.69587856     0.94700
O3271       O  0.87868668  0.99052469  0.90548114    -0.80700
C3272       C  0.86496763  0.95687360  0.90918256     0.94800
O3273       O  0.59680484  0.60226850  0.87340488    -0.80700
Mg3274     Mg  0.57676769  0.95261689  0.72787309     1.58200
O3275       O  0.92158090  0.54399152  0.68837266    -0.79000
O3276       O  0.49468645  0.87729454  0.90825275    -0.80700
C3277       C  0.54599439  0.73918226  0.99488554     0.88500
C3278       C  0.56648184  0.77309291  0.97285664    -0.51700
C3279       C  0.54701125  0.78294482  0.95167705     0.11500
C3280       C  0.00601666  0.75715403  0.95469698     0.22400
C3281       C  0.52487307  0.74695217  0.02184980    -0.52400
C3282       C  0.00182778  0.75369805  0.00011302     0.11600
C3283       C  0.51915615  0.70994368  0.96264948    -0.52000
C3284       C  0.00033676  0.72020649  0.93992741     0.12100
H3285       H  0.59415620  0.78677661  0.97181180     0.16700
H3286       H  0.98838817  0.76356686  0.93825271     0.02400
H3287       H  0.52424714  0.74265059  0.05333502     0.17000
H3288       H  0.51658321  0.68400710  0.95644743     0.16700
C3289       C  0.75875555  0.95756804  0.93142657     0.88500
C3290       C  0.72571239  0.93177500  0.95036315    -0.51700
C3291       C  0.71509183  0.94890116  0.97474047     0.11500
C3292       C  0.74078888  0.49466768  0.98880484     0.22400
C3293       C  0.75129401  0.98338632  0.91006631    -0.52400
C3294       C  0.74198452  0.50601911  0.94556052     0.11600
C3295       C  0.78543276  0.98176972  0.96691380    -0.52000
C3296       C  0.77723878  0.50233399  0.99939901     0.12100
H3297       H  0.71198449  0.90241214  0.94509171     0.16700
H3298       H  0.73358313  0.50900070  0.00993454     0.02400
H3299       H  0.75571061  0.98873347  0.87918566     0.17000
H3300       H  0.81114102  0.98678557  0.97080125     0.16700
C3301       C  0.74114353  0.72375406  0.93173487     0.88500
C3302       C  0.75284586  0.75931039  0.95583589    -0.51700
C3303       C  0.78114066  0.77154863  0.98228819     0.11500
C3304       C  0.79612806  0.74693736  0.98170910     0.22400
C3305       C  0.77285947  0.73056836  0.91176717    -0.52400
C3306       C  0.80154156  0.74175998  0.93781193     0.11600
C3307       C  0.73671963  0.69706762  0.96320906    -0.52000
C3308       C  0.76583698  0.70932343  0.98924705     0.12100
H3309       H  0.73926350  0.77339868  0.95283496     0.16700
H3310       H  0.81916034  0.75668940  0.00302104     0.02400
H3311       H  0.77210277  0.72520211  0.88000855     0.17000
H3312       H  0.71335163  0.67056206  0.96385994     0.16700
C3313       C  0.84262708  0.95078762  0.97455125    -0.14400
C3314       C  0.83977020  0.93715081  0.93730433    -0.29600
H3315       H  0.87378252  0.97688065  0.78183245     0.14600
H3316       H  0.82302138  0.90798981  0.93012195     0.15200
C3317       C  0.77996615  0.92599068  0.87950138    -0.11200
C3318       C  0.77009899  0.93914067  0.90373181    -0.12800
C3319       C  0.79859068  0.83268443  0.02349555    -0.11200
C3320       C  0.79323751  0.80413832  0.00858153    -0.12800
C3321       C  0.89401871  0.80838570  0.79042288    -0.14400
C3322       C  0.90788758  0.81108150  0.75637323    -0.29600
H3323       H  0.88719872  0.82753977  0.80028743     0.14600
H3324       H  0.86828245  0.83327675  0.99728692     0.15200
C3325       C  0.85498029  0.74477385  0.90734724    -0.11200
C3326       C  0.83187559  0.74304008  0.92477647    -0.12800
C3327       C  0.95065535  0.75496457  0.03221365    -0.11200
C3328       C  0.97423645  0.75377228  0.01940659    -0.12800
C3329       C  0.54647264  0.87996643  0.93202229    -0.14400
C3330       C  0.53688474  0.86318721  0.96581362    -0.29600
H3331       H  0.57260684  0.89093911  0.92465418     0.14600
H3332       H  0.53199290  0.84711480  0.76943157     0.15200
C3333       C  0.57915811  0.83091169  0.89810686    -0.11200
C3334       C  0.56308285  0.80995437  0.92267230    -0.12800
C3335       C  0.68415612  0.92807498  0.99557091    -0.11200
C3336       C  0.65669617  0.90838313  0.00895116    -0.12800
C3337       C  0.67620612  0.54540695  0.79001060    -0.14400
C3338       C  0.66601569  0.55950116  0.76152606    -0.29600
H3339       H  0.65933924  0.51744805  0.79674174     0.14600
H3340       H  0.68031130  0.58665581  0.96018073     0.15200
C3341       C  0.74381069  0.56140566  0.91328767    -0.11200
C3342       C  0.74271473  0.53813096  0.93314871    -0.12800
C3343       C  0.76701595  0.66277807  0.03682770    -0.11200
C3344       C  0.76915314  0.68687768  0.01786550    -0.12800
C3345       C  0.59553886  0.64808237  0.91130421    -0.14400
C3346       C  0.62159660  0.65513293  0.93868587    -0.29600
H3347       H  0.58138904  0.66132410  0.91500538     0.14600
H3348       H  0.63530008  0.64133013  0.93554307     0.15200
C3349       C  0.68651262  0.70750582  0.87947479    -0.11200
C3350       C  0.71022554  0.71256078  0.90317804    -0.12800
C3351       C  0.58988566  0.72124159  0.02336062    -0.11200
C3352       C  0.56881293  0.72919390  0.01532276    -0.12800
C3353       C  0.92837134  0.59613218  0.71917921    -0.14400
C3354       C  0.94580301  0.61538931  0.75391009    -0.29600
H3355       H  0.90104758  0.58581690  0.71364887     0.14600
H3356       H  0.89858305  0.57799748  0.93350893     0.15200
C3357       C  0.95168898  0.67133098  0.88393862    -0.11200
C3358       C  0.97301128  0.69430226  0.90947660    -0.12800
C3359       C  0.83074374  0.56002956  0.03846903    -0.11200
C3360       C  0.80344162  0.53278243  0.02640519    -0.12800
loop_ 
_geom_bond_atom_site_label_1 
_geom_bond_atom_site_label_2 
_geom_bond_distance 
_geom_bond_site_symmetry_2 
_ccdc_geom_bond_type 
C1            N2   1.354       .  A
C1            N6   1.369       .  A
C1          C167   1.453       .  S
N2          C171   1.355       .  A
C3            N4   1.358       .  A
C3          N674   1.344       .  A
C3          C162   1.462   1_554  S
N4            C5   1.359       .  A
C5          N678   1.381       .  A
C5          C165   1.468       .  S
N6          C173   1.371       .  A
C7            N8   1.368       .  A
C7           N12   1.353       .  A
C7          C159   1.454       .  S
N8          C177   1.370       .  A
C9           N10   1.359       .  A
C9          N680   1.367       .  A
C9          C157   1.441       .  S
N10         C683   1.357   1_554  A
C11          N12   1.357       .  A
C11         N178   1.356       .  A
C11         C154   1.475       .  S
C13          N14   1.372       .  A
C13          N18   1.360       .  A
C13         C149   1.449       .  S
N14         C687   1.368       .  A
C15          N16   1.355       .  A
C15         N182   1.366       .  A
C15         C151   1.448       .  S
N16         C185   1.357       .  A
C17          N18   1.354       .  A
C17         N688   1.346       .  A
C17         C145   1.467   1_554  S
C19          N24   1.352       .  A
C19         N188   1.372       .  A
C19         C144   1.464       .  S
N20          C21   1.379       .  A
N20         C691   1.378       .  A
C21          N22   1.359       .  A
C21         C141   1.472       .  S
N22          C23   1.357       .  A
C23         N696   1.360       .  A
C23         C810   1.484   1_554  S
N24         C191   1.358       .  A
C25          N26   1.377       .  A
C25          N30   1.339       .  A
C25         C135   1.446       .  S
N26         C195   1.381       .  A
C27          N28   1.359       .  A
C27         N698   1.380       .  A
C27         C133   1.459       .  S
N28         C701   1.353       .  A
C29          N30   1.338       .  A
C29         N196   1.355       .  A
C29         C297   1.451       .  S
C31          N32   1.365       .  A
C31          N36   1.369       .  A
C31         C125   1.449       .  S
N32          C33   1.359       .  A
C33         N706   1.353       .  A
C33         C793   1.479   1_554  S
N34          C35   1.347       .  A
N34         C201   1.353       .  A
C35         N204   1.372       .  A
C35         C127   1.457       .  S
N36         C707   1.363       .  A
O37        Mg879   2.169   1_545  S
O37       Mg1893   2.204       .  S
O37        C1752   1.233       .  S
C38          O51   1.229       .  S
C38          O75   1.266       .  A
C38          H77   1.081       .  S
Mg39        O877   2.110       .  S
Mg39        O236   2.177       .  S
Mg39         O79   2.310       .  S
Mg39         O50   2.369       .  S
Mg39       O1091   2.302       .  S
O40         Mg65   2.145   1_565  S
O40       Mg1090   2.128       .  S
O40         C901   1.237       .  S
O41          C72   1.270       .  A
O41         Mg65   2.295       .  S
C42         C130   1.471       .  S
C42          O44   1.265       .  A
C42          O56   1.264       .  A
O43         C911   1.271       .  A
O43       Mg1725   2.300       .  S
O44         Mg76   2.275       .  S
Mg45         O51   2.139       .  S
Mg45       O2389   2.144   1_455  S
Mg45       O1723   2.298   1_455  S
Mg45       O1739   2.235   1_455  S
Mg45        O719   2.297       .  S
C46         C137   1.461       .  S
C46          O84   1.268       .  A
C46          O52   1.254       .  A
O47          C54   1.259       .  A
O47        Mg213   2.253       .  S
H48          C61   1.081       .  S
C49        O1744   1.258       .  A
C49          H74   1.053   1_656  S
C49          O63   1.260       .  A
O50          C73   1.285       .  A
O51        Mg737   2.130       .  S
O52        Mg250   2.231       .  S
C53         C146   1.461       .  S
C53          O66   1.264       .  A
C53          O58   1.274       .  A
C54         C153   1.461       .  S
C54          O81   1.271       .  A
Mg55       O1742   2.169       .  S
Mg55        O231   2.134   1_655  S
Mg55         O57   2.355   1_655  S
Mg55         O84   2.319   1_655  S
Mg55       O1904   2.293       .  S
O56       Mg2407   2.204       .  S
O57          C61   1.281       .  A
O58        Mg737   2.308       .  S
O59          C78   1.267       .  A
O59       Mg1725   2.232       .  S
O60          C80   1.258       .  A
O60        Mg244   2.255       .  S
C61         O880   1.235       .  S
O62       Mg1735   2.176       .  S
O62        Mg244   2.146       .  S
O62          C73   1.237       .  S
O63         Mg82   2.201   1_655  S
O63        Mg727   2.198       .  S
O64        C1729   1.258       .  A
O64         Mg76   2.193       .  S
Mg65        O219   2.092       .  S
Mg65         O81   2.307       .  S
Mg65        O226   2.259       .  S
O66        Mg922   2.203   1_545  S
H67          C72   1.061   1_655  S
O68         Mg76   2.111       .  S
O68        Mg711   2.086       .  S
O68          C71   1.235       .  S
H69          C71   1.082       .  S
H70          C73   1.075       .  S
C71         O883   1.271       .  A
C72        O1717   1.230       .  S
O75        Mg922   2.284   1_545  S
Mg76        O734   2.163       .  S
Mg76        O732   2.211       .  S
C78         C161   1.465       .  S
C78          O83   1.277       .  A
O79          C80   1.265       .  A
C80         C122   1.466       .  S
Mg82       O1552   2.114       .  S
Mg82        O724   2.261       .  S
Mg82        O906   2.193       .  S
Mg82        O915   2.288       .  S
O83       Mg1551   2.300       .  S
C85          C86   1.525       .  S
C85          C91   1.547       .  S
C85          C89   1.539       .  S
C85         C160   1.489       .  S
C86          H93   1.088       .  S
C86          C87   1.357       .  D
C87        C1768   1.573       .  S
C87         C142   1.476       .  S
C88          C92   1.543       .  S
C88          C90   1.564       .  S
C88        C1767   1.564       .  S
C88          H94   1.111       .  S
C89          H95   1.087       .  S
C89        C1770   1.369       .  D
C90        C1769   1.363       .  D
C90         C136   1.464       .  S
C91          H96   1.083       .  S
C91        C1772   1.372   1_455  D
C92        C1771   1.376       .  D
C92         C166   1.474       .  S
C97          C98   1.533       .  S
C97         C103   1.538       .  S
C97         C101   1.531       .  S
C97         C126   1.482       .  S
C98         H105   1.087       .  S
C98          C99   1.368       .  D
C99         C940   1.563       .  S
C99         C143   1.471       .  S
C100        C104   1.544   1_565  S
C100        C102   1.552   1_565  S
C100        C939   1.566       .  S
C100        H106   1.103   1_565  S
C101        H107   1.088       .  S
C101        C942   1.361       .  D
C102        C941   1.361   1_545  D
C102        C150   1.455       .  S
C103        H108   1.085       .  S
C103        C944   1.370       .  D
C104        C943   1.368   1_545  D
C104        C168   1.460       .  S
C109        C110   1.518       .  S
C109        C115   1.535       .  S
C109        C113   1.529       .  S
C109        C158   1.472       .  S
C110        H117   1.088       .  S
C110        C111   1.356       .  D
C111        C112   1.568       .  S
C111        C128   1.462       .  S
C112        C116   1.550       .  S
C112        C114   1.563       .  S
C112        H118   1.111       .  S
C113        H119   1.087       .  S
C113        C114   1.364       .  D
C114        C134   1.466       .  S
C115        H120   1.085       .  S
C115        C116   1.370       .  D
C116        C152   1.455       .  S
C121        C201   1.478       .  S
C121        H291   1.085       .  S
C121        C122   1.344       .  D
C122        H124   1.087       .  S
H123        C793   1.086       .  S
C125        C126   1.214       .  T
C127        C128   1.220       .  T
C129        C701   1.456   1_556  S
C129        H131   1.088       .  S
C129        C130   1.341       .  D
C130        H804   1.084   1_556  S
H132        C298   1.087       .  S
C133        C134   1.222       .  T
C135        C136   1.219       .  T
C137        H139   1.087       .  S
C137        C138   1.340       .  D
C138        C191   1.478       .  S
C138        H308   1.087       .  S
H140        C810   1.087       .  S
C141        C142   1.228       .  T
C143        C144   1.224       .  T
C145        H147   1.087       .  S
C145        C146   1.348       .  D
C146        H820   1.087       .  S
H148        C314   1.086       .  S
C149        C150   1.215       .  T
C151        C152   1.214       .  T
C153        H155   1.087       .  S
C153        C154   1.342       .  D
C154        H156   1.087       .  S
C157        C158   1.209       .  T
C159        C160   1.218       .  T
C161        H163   1.086       .  S
C161        C162   1.333       .  D
C162        H836   1.088       .  S
H164        C330   1.085       .  S
C165        C166   1.226       .  T
C167        C168   1.217       .  T
C169        N170   1.356       .  A
C169        N174   1.368       .  A
C169        C335   1.457       .  S
N170        C339   1.359       .  A
C171        N172   1.353       .  A
C171        C330   1.472       .  S
N172        C173   1.357       .  A
C173        C333   1.449       .  S
N174        C341   1.371       .  A
C175        N176   1.366       .  A
C175        N180   1.355       .  A
C175        C327   1.453       .  S
N176        C345   1.369       .  A
C177        N178   1.358       .  A
C177        C325   1.453       .  S
C179        N346   1.352       .  A
C179        N180   1.358       .  A
C179        C322   1.471       .  S
C181        N182   1.367       .  A
C181        N186   1.355       .  A
C181        C317   1.440       .  S
C183        N350   1.370       .  A
C183        N184   1.349       .  A
C183        C319   1.447       .  S
N184        C353   1.350       .  A
C185        N186   1.352       .  A
C185        C313   1.474       .  S
C187        N356   1.367       .  A
C187        N192   1.353       .  A
C187        C312   1.454       .  S
N188        C189   1.375       .  A
C189        N190   1.358       .  A
C189        C309   1.455       .  S
N190        C191   1.354       .  A
N192        C359   1.357       .  A
C193        N194   1.375       .  A
C193        N198   1.349       .  A
C193        C303   1.459       .  S
N194        C363   1.378       .  A
C195        N196   1.361       .  A
C195        C301   1.463       .  S
C197        N364   1.351       .  A
C197        N198   1.350       .  A
C197        C465   1.459       .  S
C199        N200   1.363       .  A
C199        N204   1.377       .  A
C199        C293   1.463       .  S
N200        C201   1.358       .  A
N202        C369   1.355       .  A
N202        C203   1.351       .  A
C203        N372   1.369       .  A
C203        C295   1.453       .  S
O205      Mg1047   2.136   1_545  S
O205      Mg2061   2.169       .  S
O205       C1920   1.228       .  S
C206        O219   1.233       .  S
C206        O243   1.267   1_545  A
C206        H245   1.081       .  S
Mg207      O1045   2.180       .  S
Mg207       O404   2.069       .  S
Mg207      O1259   2.290       .  S
Mg207       O247   2.364       .  S
Mg207       O218   2.358       .  S
O208      Mg1258   2.145       .  S
O208       Mg233   2.153   1_565  S
O208       C1069   1.232       .  S
O209        C240   1.276       .  A
O209       Mg233   2.323       .  S
C210        C298   1.463       .  S
C210        O212   1.261       .  A
C210        O224   1.278       .  A
O211       C1079   1.270       .  A
O211      Mg1893   2.285       .  S
O212       Mg244   2.206       .  S
Mg213      O1717   2.123       .  S
Mg213       O219   2.117       .  S
Mg213      O1891   2.235       .  S
Mg213      O1907   2.272       .  S
C214        C305   1.482       .  S
C214        O252   1.265   1_455  A
C214        O220   1.261       .  A
O215        C222   1.264       .  A
O215       Mg381   2.273       .  S
H216        C229   1.079       .  S
C217        O231   1.229       .  S
C217       O1912   1.270   1_455  A
C217        H242   1.081       .  S
O218        C241   1.282       .  A
O220       Mg418   2.259       .  S
C221        C314   1.459       .  S
C221        O234   1.275   1_545  A
C221        O226   1.270       .  A
C222        C321   1.463       .  S
C222        O249   1.274       .  A
Mg223      O1910   2.154       .  S
Mg223       O399   2.108       .  S
Mg223      O2072   2.209       .  S
Mg223       O225   2.302   1_655  S
Mg223       O252   2.325       .  S
O224      Mg1735   2.299       .  S
O225        C229   1.272       .  A
O227        C246   1.276       .  A
O227      Mg1893   2.278       .  S
O228        C248   1.251       .  A
O228       Mg412   2.212       .  S
C229       O1048   1.230       .  S
O230      Mg1903   2.133       .  S
O230       Mg412   2.158       .  S
O230        C241   1.241       .  S
O231       Mg250   2.154       .  S
O232       C1897   1.270       .  A
O232       Mg244   2.292       .  S
Mg233       O387   2.085       .  S
Mg233       O394   2.295       .  S
Mg233       O249   2.292       .  S
O234      Mg1090   2.263       .  S
H235        C240   1.080   1_655  S
O236       Mg244   2.185       .  S
O236        C239   1.253       .  A
H237        C239   1.072       .  S
H238        C241   1.081       .  S
C239       O1051   1.264       .  A
C240       O1885   1.231       .  S
O243      Mg1090   2.278       .  S
C246        C329   1.459       .  S
C246        O251   1.266       .  A
O247        C248   1.273       .  A
C248        C290   1.469       .  S
Mg250       O880   2.123       .  S
Mg250      O1074   2.253       .  S
Mg250      O1083   2.284       .  S
O251       Mg879   2.240   1_545  S
C253        C254   1.529       .  S
C253        C259   1.537       .  S
C253        C257   1.545       .  S
C253        C328   1.486       .  S
C254        H261   1.088       .  S
C254        C255   1.359       .  D
C255       C1936   1.556       .  S
C255        C310   1.460       .  S
C256       C1935   1.562       .  S
C256        C260   1.545       .  S
C256        C258   1.557       .  S
C256        H262   1.110       .  S
C257        H263   1.085       .  S
C257       C1938   1.376       .  D
C258       C1937   1.373       .  D
C258        C304   1.469       .  S
C259        H264   1.086       .  S
C259       C1940   1.364       .  D
C260       C1939   1.365       .  D
C260        C334   1.457       .  S
C265        C266   1.531       .  S
C265        C271   1.544       .  S
C265        C269   1.534       .  S
C265        C294   1.497       .  S
C266        H273   1.087       .  S
C266        C267   1.365       .  D
C267       C1108   1.555       .  S
C267        C311   1.460       .  S
C268       C1107   1.563       .  S
C268        C272   1.552   1_565  S
C268        C270   1.542       .  S
C268        H274   1.110   1_565  S
C269        H275   1.087       .  S
C269       C1110   1.367       .  D
C270       C1109   1.363       .  D
C270        C318   1.447   1_565  S
C271        H276   1.077       .  S
C271       C1112   1.372       .  D
C272       C1111   1.369   1_545  D
C272        C336   1.464       .  S
C277        C278   1.522       .  S
C277        C283   1.540       .  S
C277        C281   1.536       .  S
C277        C326   1.486       .  S
C278        H285   1.088       .  S
C278        C279   1.360       .  D
C279        C280   1.561       .  S
C279        C296   1.458       .  S
C280        C284   1.545       .  S
C280        C282   1.559       .  S
C280        H286   1.110       .  S
C281        H287   1.087       .  S
C281        C282   1.369       .  D
C282        C302   1.470       .  S
C283        H288   1.087       .  S
C283        C284   1.373       .  D
C284        C320   1.458       .  S
C289        C369   1.480       .  S
C289        H459   1.086       .  S
C289        C290   1.342       .  D
C290        H292   1.087       .  S
C293        C294   1.222       .  T
C295        C296   1.217       .  T
C297        H299   1.089       .  S
C297        C298   1.330       .  D
H300        C466   1.086       .  S
C301        C302   1.223       .  T
C303        C304   1.222       .  T
C305        H307   1.086       .  S
C305        C306   1.355       .  D
C306        C359   1.493       .  S
C306        H476   1.086       .  S
C309        C310   1.218       .  T
C311        C312   1.217       .  T
C313        H315   1.087   1_545  S
C313        C314   1.341       .  D
H316        C482   1.087       .  S
C317        C318   1.209       .  T
C319        C320   1.215       .  T
C321        H323   1.087       .  S
C321        C322   1.339       .  D
C322        H324   1.087       .  S
C325        C326   1.216       .  T
C327        C328   1.217       .  T
C329        H331   1.086       .  S
C329        C330   1.340       .  D
H332        C498   1.087       .  S
C333        C334   1.215       .  T
C335        C336   1.219       .  T
C337        N338   1.347       .  A
C337        N342   1.375       .  A
C337        C503   1.452       .  S
N338        C507   1.345       .  A
C339        N340   1.350       .  A
C339        C498   1.474       .  S
N340        C341   1.354       .  A
C341        C501   1.442       .  S
N342        C509   1.378       .  A
C343        N344   1.370       .  A
C343        N348   1.345       .  A
C343        C495   1.447       .  S
N344        C513   1.374       .  A
C345        N346   1.354       .  A
C345        C493   1.444       .  S
C347        N514   1.354       .  A
C347        N348   1.350       .  A
C347        C490   1.467       .  S
C349        N350   1.373       .  A
C349        N354   1.358       .  A
C349        C485   1.452       .  S
C351        N518   1.370       .  A
C351        N352   1.344       .  A
C351        C487   1.442       .  S
N352        C521   1.346       .  A
C353        N354   1.354       .  A
C353        C481   1.470       .  S
C355        N524   1.373       .  A
C355        N360   1.351       .  A
C355        C480   1.462       .  S
N356        C357   1.370       .  A
C357        N358   1.368       .  A
C357        C477   1.467       .  S
N358        C359   1.366       .  A
N360        C527   1.357       .  A
C361        N362   1.374       .  A
C361        N366   1.338       .  A
C361        C471   1.442       .  S
N362        C531   1.379       .  A
C363        N364   1.356       .  A
C363        C469   1.455       .  S
C365        N532   1.357       .  A
C365        N366   1.337       .  A
C365        C633   1.454       .  S
C367        N368   1.363       .  A
C367        N372   1.372       .  A
C367        C461   1.458       .  S
N368        C369   1.358       .  A
N370        C537   1.351       .  A
N370        C371   1.345       .  A
C371        N540   1.367       .  A
C371        C463   1.446       .  S
O373      Mg1215   2.170       .  S
O373      Mg2229   2.153       .  S
O373       C2088   1.233       .  S
C374        O387   1.235       .  S
C374        O411   1.268       .  A
C374        H413   1.081       .  S
Mg375      O1213   2.127       .  S
Mg375       O572   2.095       .  S
Mg375      O1427   2.265       .  S
Mg375       O415   2.309       .  S
Mg375       O386   2.353       .  S
O376      Mg1426   2.145   1_545  S
O376       Mg401   2.130       .  S
O376       C1237   1.230   1_545  S
O377        C408   1.279       .  A
O377       Mg401   2.329       .  S
C378        C466   1.477       .  S
C378        O380   1.268       .  A
C378        O392   1.260       .  A
O379       C1247   1.261   1_545  A
O379      Mg2061   2.250       .  S
O380       Mg412   2.298       .  S
Mg381      O1885   2.142       .  S
Mg381       O387   2.099       .  S
Mg381      O2059   2.225       .  S
Mg381      O2075   2.249       .  S
C382        C473   1.460       .  S
C382        O420   1.270   1_455  A
C382        O388   1.255       .  A
O383        C390   1.269       .  A
O383       Mg549   2.294       .  S
H384        C397   1.082       .  S
C385        O399   1.226       .  S
C385       O2080   1.261       .  A
C385        H410   1.053   1_655  S
O386        C409   1.281       .  A
O388       Mg586   2.235       .  S
C389        C482   1.463       .  S
C389        O402   1.269       .  A
C389        O394   1.274       .  A
C390        C489   1.457       .  S
C390        O417   1.269       .  A
Mg391      O2078   2.162       .  S
Mg391       O567   2.096       .  S
Mg391      O2240   2.279       .  S
Mg391       O393   2.337   1_655  S
Mg391       O420   2.320       .  S
O392      Mg1903   2.187       .  S
O393        C397   1.280       .  A
O395        C414   1.272       .  A
O395      Mg2061   2.289       .  S
O396        C416   1.256       .  A
O396       Mg580   2.242       .  S
C397       O1216   1.236       .  S
O398      Mg2071   2.153       .  S
O398       Mg580   2.152       .  S
O398        C409   1.234       .  S
O399       Mg418   2.129   1_655  S
O400       C2065   1.257       .  A
O400       Mg412   2.224       .  S
Mg401       O555   2.124       .  S
Mg401       O562   2.319       .  S
Mg401       O417   2.244       .  S
O402      Mg1258   2.235   1_545  S
H403        C408   1.080   1_655  S
O404       Mg412   2.130       .  S
O404        C407   1.229       .  S
H405        C407   1.081       .  S
H406        C409   1.077       .  S
C407       O1219   1.269       .  A
C408       O2053   1.229       .  S
O411      Mg1258   2.285   1_545  S
C414        C497   1.465       .  S
C414        O419   1.263       .  A
O415        C416   1.263       .  A
C416        C458   1.463       .  S
Mg418      O1048   2.137       .  S
Mg418      O1242   2.207       .  S
Mg418      O1251   2.292       .  S
O419      Mg1047   2.226   1_545  S
C421        C422   1.535       .  S
C421        C427   1.548       .  S
C421        C425   1.527       .  S
C421        C496   1.488       .  S
C422        H429   1.087       .  S
C422        C423   1.365       .  D
C423       C2104   1.559       .  S
C423        C478   1.472       .  S
C424       C2103   1.557       .  S
C424        C428   1.530       .  S
C424        C426   1.562       .  S
C424        H430   1.111       .  S
C425        H431   1.086       .  S
C425       C2106   1.361       .  D
C426       C2105   1.360       .  D
C426        C472   1.461       .  S
C427        H432   1.083       .  S
C427       C2108   1.375       .  D
C428       C2107   1.374       .  D
C428        C502   1.451       .  S
C433        C434   1.534       .  S
C433        C439   1.538       .  S
C433        C437   1.531       .  S
C433        C462   1.491       .  S
C434        H441   1.086       .  S
C434        C435   1.370       .  D
C435       C1276   1.562       .  S
C435        C479   1.470       .  S
C436       C1275   1.560       .  S
C436        C440   1.545       .  S
C436        C438   1.552       .  S
C436        H442   1.110   1_565  S
C437        H443   1.088       .  S
C437       C1278   1.363       .  D
C438       C1277   1.365       .  D
C438        C486   1.459   1_565  S
C439        H444   1.082       .  S
C439       C1280   1.369       .  D
C440       C1279   1.374       .  D
C440        C504   1.466   1_565  S
C445        C446   1.515       .  S
C445        C451   1.545       .  S
C445        C449   1.531       .  S
C445        C494   1.475       .  S
C446        H453   1.089       .  S
C446        C447   1.353       .  D
C447        C448   1.559       .  S
C447        C464   1.452       .  S
C448        C452   1.538       .  S
C448        C450   1.558       .  S
C448        H454   1.105       .  S
C449        H455   1.087       .  S
C449        C450   1.364       .  D
C450        C470   1.464       .  S
C451        H456   1.086       .  S
C451        C452   1.378       .  D
C452        C488   1.457       .  S
C457        C537   1.480       .  S
C457        H627   1.086       .  S
C457        C458   1.345       .  D
C458        H460   1.087       .  S
C461        C462   1.219       .  T
C463        C464   1.214       .  T
C465        H467   1.087       .  S
C465        C466   1.350       .  D
H468        C634   1.086       .  S
C469        C470   1.220       .  T
C471        C472   1.216       .  T
C473        H475   1.087       .  S
C473        C474   1.341       .  D
C474        C527   1.477       .  S
C474        H644   1.087       .  S
C477        C478   1.225       .  T
C479        C480   1.223       .  T
C481        H483   1.087       .  S
C481        C482   1.346       .  D
H484        C650   1.087       .  S
C485        C486   1.216       .  T
C487        C488   1.214       .  T
C489        H491   1.087       .  S
C489        C490   1.345       .  D
C490        H492   1.087       .  S
C493        C494   1.211       .  T
C495        C496   1.216       .  T
C497        H499   1.087       .  S
C497        C498   1.336       .  D
H500        C666   1.088       .  S
C501        C502   1.211       .  T
C503        C504   1.219       .  T
C505        N506   1.350       .  A
C505        N510   1.366       .  A
C505        C671   1.450       .  S
N506        C675   1.352       .  A
C507        N508   1.355       .  A
C507        C666   1.462       .  S
N508        C509   1.358       .  A
C509        C669   1.458       .  S
N510        C677   1.371       .  A
C511        N512   1.367       .  A
C511        N516   1.348       .  A
C511        C663   1.446       .  S
N512        C681   1.371       .  A
C513        N514   1.358       .  A
C513        C661   1.450       .  S
C515        N682   1.361       .  A
C515        N516   1.349       .  A
C515        C658   1.469       .  S
C517        N518   1.375       .  A
C517        N522   1.362       .  A
C517        C653   1.456       .  S
C519        N686   1.367       .  A
C519        N520   1.343       .  A
C519        C655   1.433       .  S
N520        C689   1.340       .  A
C521        N522   1.357       .  A
C521        C649   1.472       .  S
C523        N692   1.370       .  A
C523        N528   1.357       .  A
C523        C648   1.464       .  S
N524        C525   1.376       .  A
C525        N526   1.358       .  A
C525        C645   1.457       .  S
N526        C527   1.354       .  A
N528        C695   1.361       .  A
C529        N530   1.378       .  A
C529        N534   1.344       .  A
C529        C639   1.454       .  S
N530        C699   1.381       .  A
C531        N532   1.362       .  A
C531        C637   1.460       .  S
C533        N700   1.350       .  A
C533        N534   1.343       .  A
C533        C801   1.451       .  S
C535        N536   1.366       .  A
C535        N540   1.373       .  A
C535        C629   1.458       .  S
N536        C537   1.360       .  A
N538        C705   1.349       .  A
N538        C539   1.344       .  A
C539        N708   1.362       .  A
C539        C631   1.436       .  S
O541      Mg1383   2.146       .  S
O541      Mg2397   2.136       .  S
O541       C2256   1.235       .  S
C542        O555   1.230       .  S
C542        O579   1.267       .  A
C542        H581   1.081       .  S
Mg543      O1381   2.164       .  S
Mg543       O740   2.084       .  S
Mg543      O1595   2.246       .  S
Mg543       O583   2.320       .  S
Mg543       O554   2.353       .  S
O544      Mg1594   2.121       .  S
O544       Mg569   2.105   1_565  S
O544       C1405   1.236       .  S
O545        C576   1.274       .  A
O545       Mg569   2.309       .  S
C546        C634   1.467       .  S
C546        O548   1.261       .  A
C546        O560   1.275       .  A
O547       C1415   1.270       .  A
O547      Mg2229   2.290       .  S
O548       Mg580   2.219       .  S
Mg549      O2053   2.141       .  S
Mg549       O555   2.141       .  S
Mg549      O2227   2.286   1_455  S
Mg549      O2243   2.259       .  S
C550        C641   1.470       .  S
C550        O588   1.269   1_455  A
C550        O556   1.261       .  A
O551        C558   1.266       .  A
O551       Mg717   2.262       .  S
H552        C565   1.080       .  S
C553        O567   1.222       .  S
C553       O2248   1.268       .  A
C553        H578   1.067   1_655  S
O554        C577   1.279       .  A
O556       Mg754   2.272       .  S
C557        C650   1.465       .  S
C557        O570   1.266       .  A
C557        O562   1.276       .  A
C558        C657   1.469       .  S
C558        O585   1.268       .  A
Mg559      O2246   2.156       .  S
Mg559       O735   2.190       .  S
Mg559      O2408   2.209       .  S
Mg559       O561   2.303   1_655  S
Mg559       O588   2.315       .  S
O560      Mg2071   2.286       .  S
O561        C565   1.276       .  A
O563        C582   1.271       .  A
O563      Mg2229   2.253       .  S
O564        C584   1.255       .  A
O564       Mg748   2.211       .  S
C565       O1384   1.230       .  S
O566      Mg2239   2.148       .  S
O566       Mg748   2.159       .  S
O566        C577   1.238       .  S
O567       Mg586   2.141   1_655  S
O568       C2233   1.269       .  A
O568       Mg580   2.311       .  S
Mg569       O723   2.109       .  S
Mg569       O730   2.290       .  S
Mg569       O585   2.289       .  S
O570      Mg1426   2.217   1_545  S
H571        C576   1.066       .  S
O572       Mg580   2.111       .  S
O572        C575   1.226       .  S
H573        C575   1.074       .  S
H574        C577   1.080       .  S
C575       O1387   1.269       .  A
C576       O2221   1.233       .  S
O579      Mg1426   2.284   1_545  S
C582        C665   1.466       .  S
C582        O587   1.275       .  A
O583        C584   1.267       .  A
C584        C626   1.468       .  S
Mg586      O1216   2.095       .  S
Mg586      O1410   2.251       .  S
Mg586      O1419   2.293       .  S
O587      Mg1215   2.275       .  S
C589        C590   1.524       .  S
C589        C595   1.546       .  S
C589        C593   1.535       .  S
C589        C664   1.483       .  S
C590        H597   1.088       .  S
C590        C591   1.356       .  D
C591       C2272   1.562       .  S
C591        C646   1.462       .  S
C592       C2271   1.567       .  S
C592        C596   1.545       .  S
C592        C594   1.560       .  S
C592        H598   1.111       .  S
C593        H599   1.085       .  S
C593       C2274   1.368       .  D
C594       C2273   1.369       .  D
C594        C640   1.469       .  S
C595        H600   1.081       .  S
C595       C2276   1.371   1_455  D
C596       C2275   1.370       .  D
C596        C670   1.466       .  S
C601        C602   1.533       .  S
C601        C607   1.539       .  S
C601        C605   1.531       .  S
C601        C630   1.492       .  S
C602        H609   1.087       .  S
C602        C603   1.368       .  D
C603       C1444   1.562       .  S
C603        C647   1.470       .  S
C604       C1443   1.570   1_545  S
C604        C608   1.548       .  S
C604        C606   1.557       .  S
C604        H610   1.105       .  S
C605        H611   1.087       .  S
C605       C1446   1.365       .  D
C606       C1445   1.363   1_545  D
C606        C654   1.463       .  S
C607        H612   1.081       .  S
C607       C1448   1.369       .  D
C608       C1447   1.367   1_545  D
C608        C672   1.459       .  S
C613        C614   1.516       .  S
C613        C619   1.544       .  S
C613        C617   1.534       .  S
C613        C662   1.482       .  S
C614        H621   1.089       .  S
C614        C615   1.356       .  D
C615        C616   1.549       .  S
C615        C632   1.443       .  S
C616        C620   1.534       .  S
C616        C618   1.558       .  S
C616        H622   1.107       .  S
C617        H623   1.087       .  S
C617        C618   1.367       .  D
C618        C638   1.466       .  S
C619        H624   1.081       .  S
C619        C620   1.373       .  D
C620        C656   1.451       .  S
C625        C705   1.480       .  S
C625        H795   1.084       .  S
C625        C626   1.346       .  D
C626        H628   1.088       .  S
C629        C630   1.219       .  T
C631        C632   1.208       .  T
C633        H635   1.089       .  S
C633        C634   1.331       .  D
H636        C802   1.085       .  S
C637        C638   1.221       .  T
C639        C640   1.221       .  T
C641        H643   1.087       .  S
C641        C642   1.342       .  D
C642        C695   1.482       .  S
C642        H812   1.087       .  S
C645        C646   1.219       .  T
C647        C648   1.223       .  T
C649        H651   1.087       .  S
C649        C650   1.350       .  D
H652        C818   1.086       .  S
C653        C654   1.219       .  T
C655        C656   1.209       .  T
C657        H659   1.080       .  S
C657        C658   1.338       .  D
C658        H660   1.088       .  S
C661        C662   1.215       .  T
C663        C664   1.214       .  T
C665        H667   1.086       .  S
C665        C666   1.337       .  D
H668        C834   1.088       .  S
C669        C670   1.220       .  T
C671        C672   1.216       .  T
C673        N674   1.345       .  A
C673        N678   1.377       .  A
C673        C839   1.457       .  S
C675        N676   1.360       .  A
C675        C834   1.474       .  S
N676        C677   1.364       .  A
C677        C837   1.452       .  S
C679        N680   1.362       .  A
C679        N684   1.347   1_554  A
C679        C831   1.437       .  S
C681        N682   1.362       .  A
C681        C829   1.456       .  S
C683        N684   1.351       .  A
C683        C826   1.470       .  S
C685        N686   1.371       .  A
C685        N690   1.362       .  A
C685        C821   1.450       .  S
C687        N688   1.344       .  A
C687        C823   1.438       .  S
C689        N690   1.358       .  A
C689        C817   1.460       .  S
C691        N696   1.356       .  A
C691        C816   1.476       .  S
N692        C693   1.372       .  A
C693        N694   1.357       .  A
C693        C813   1.454       .  S
N694        C695   1.355       .  A
C697        N698   1.376       .  A
C697        N702   1.343       .  A
C697        C807   1.454       .  S
C699        N700   1.355       .  A
C699        C805   1.457       .  S
C701        N702   1.345       .  A
C703        N704   1.367       .  A
C703        N708   1.368       .  A
C703        C797   1.453       .  S
N704        C705   1.362       .  A
N706        C707   1.347       .  A
C707        C799   1.443       .  S
O709      Mg1551   2.140       .  S
O709      Mg1725   2.143       .  S
O709       C2424   1.230       .  S
C710        O723   1.236       .  S
C710        O747   1.269   1_545  A
C710        H749   1.081       .  S
Mg711      O1549   2.158       .  S
Mg711       O923   2.236       .  S
Mg711       O751   2.324       .  S
Mg711       O722   2.351       .  S
O712       Mg922   2.146   1_545  S
O712       Mg737   2.146       .  S
O712       C1573   1.233   1_545  S
O713        C744   1.271       .  A
O713       Mg737   2.308       .  S
C714        C802   1.464       .  S
C714        O716   1.265       .  A
C714        O728   1.266       .  A
O715       C1583   1.264   1_545  A
O715      Mg2397   2.243       .  S
O716       Mg748   2.255       .  S
Mg717      O2221   2.155       .  S
Mg717       O723   2.133       .  S
Mg717      O2395   2.237       .  S
Mg717      O2411   2.307       .  S
C718        C809   1.470       .  S
C718        O756   1.268   1_455  A
C718        O724   1.257       .  A
O719        C726   1.270       .  A
H720        C733   1.082       .  S
C721       O2416   1.258       .  A
C721        H746   1.056   1_655  S
C721        O735   1.259       .  A
O722        C745   1.279       .  A
C725        C818   1.466       .  S
C725        O738   1.265   1_545  A
C725        O730   1.277       .  A
C726        C825   1.464       .  S
C726        O753   1.268       .  A
Mg727      O2414   2.160       .  S
Mg727      O1736   2.216       .  S
Mg727       O729   2.344   1_655  S
Mg727       O756   2.328       .  S
O728      Mg2239   2.213       .  S
O729        C733   1.279       .  A
O731        C750   1.267       .  A
O731      Mg2397   2.282       .  S
O732        C752   1.255       .  A
C733       O1552   1.235       .  S
O734      Mg2407   2.155       .  S
O734        C745   1.236       .  S
O735       Mg754   2.190   1_655  S
O736       C2401   1.262       .  A
O736       Mg748   2.239       .  S
Mg737       O753   2.242       .  S
O738      Mg1594   2.229       .  S
H739        C744   1.074   1_655  S
O740       Mg748   2.121       .  S
O740        C743   1.229       .  S
H741        C743   1.082       .  S
H742        C745   1.080       .  S
C743       O1555   1.270       .  A
C744       O2389   1.225   1_455  S
O747      Mg1594   2.296       .  S
C750        C833   1.483       .  S
C750        O755   1.270       .  A
O751        C752   1.266       .  A
C752        C794   1.466       .  S
Mg754      O1384   2.099       .  S
Mg754      O1578   2.180       .  S
Mg754      O1587   2.289       .  S
O755      Mg1383   2.266       .  S
C757        C758   1.530   1_554  S
C757        C763   1.542   1_554  S
C757        C761   1.528       .  S
C757        C832   1.475       .  S
C758        H765   1.088       .  S
C758        C759   1.360       .  D
C759       C2440   1.554       .  S
C759        C814   1.460       .  S
C760       C2439   1.562       .  S
C760        C764   1.540       .  S
C760        C762   1.565   1_556  S
C760        H766   1.111       .  S
C761        H767   1.085       .  S
C761       C2442   1.363       .  D
C762       C2441   1.364       .  D
C762        C808   1.467       .  S
C763        H768   1.085       .  S
C763       C2444   1.370       .  D
C764       C2443   1.369       .  D
C764        C838   1.457       .  S
C769        C770   1.531       .  S
C769        C775   1.535       .  S
C769        C773   1.528       .  S
C769        C798   1.485       .  S
C770        H777   1.087       .  S
C770        C771   1.368       .  D
C771       C1612   1.575       .  S
C771        C815   1.482   1_556  S
C772       C1611   1.562       .  S
C772        C776   1.548   1_565  S
C772        C774   1.551   1_565  S
C772        H778   1.110   1_566  S
C773        H779   1.086       .  S
C773       C1614   1.362       .  D
C774       C1613   1.363   1_545  D
C774        C822   1.455       .  S
C775        H780   1.084       .  S
C775       C1616   1.367       .  D
C776       C1615   1.375   1_545  D
C776        C840   1.472   1_556  S
C781        C782   1.521       .  S
C781        C787   1.545       .  S
C781        C785   1.536       .  S
C781        C830   1.489       .  S
C782        H789   1.088       .  S
C782        C783   1.359       .  D
C783        C784   1.553       .  S
C783        C800   1.450   1_556  S
C784        C788   1.533       .  S
C784        C786   1.551       .  S
C784        H790   1.106   1_556  S
C785        H791   1.082       .  S
C785        C786   1.368       .  D
C786        C806   1.467       .  S
C787        H792   1.086       .  S
C787        C788   1.376       .  D
C788        C824   1.453   1_556  S
C793        C794   1.345       .  D
C794        H796   1.087       .  S
C797        C798   1.216       .  T
C799        C800   1.212       .  T
C801        H803   1.088       .  S
C801        C802   1.340       .  D
C805        C806   1.221       .  T
C807        C808   1.221       .  T
C809        H811   1.087       .  S
C809        C810   1.344       .  D
C813        C814   1.217       .  T
C815        C816   1.231       .  T
C817        H819   1.089       .  S
C817        C818   1.332       .  D
C821        C822   1.214       .  T
C823        C824   1.211       .  T
C825        H827   1.087       .  S
C825        C826   1.348       .  D
C826        H828   1.087       .  S
C829        C830   1.218       .  T
C831        C832   1.209       .  T
C833        H835   1.086       .  S
C833        C834   1.344       .  D
C837        C838   1.215       .  T
C839        C840   1.223       .  T
C841        N842   1.347       .  A
C841        N846   1.368       .  A
C841       C1007   1.446       .  S
N842       C1011   1.346       .  A
C843       N1514   1.360       .  A
C843        N844   1.351   1_556  A
C843       C1002   1.475       .  S
N844        C845   1.354       .  A
C845       N1518   1.371       .  A
C845       C1005   1.447       .  S
N846       C1013   1.373       .  A
C847        N848   1.366       .  A
C847        N852   1.354       .  A
C847        C999   1.451       .  S
N848       C1017   1.369       .  A
C849       N1520   1.369       .  A
C849        N850   1.360       .  A
C849        C997   1.448       .  S
N850       C1523   1.357   1_554  A
C851       N1018   1.357       .  A
C851        N852   1.357       .  A
C851        C994   1.475       .  S
C853        N854   1.374       .  A
C853        N858   1.360       .  A
C853        C989   1.451       .  S
N854       C1527   1.370       .  A
C855       N1022   1.372       .  A
C855        N856   1.353       .  A
C855        C991   1.450       .  S
N856       C1025   1.353       .  A
C857       N1528   1.345       .  A
C857        N858   1.354       .  A
C857        C985   1.466   1_554  S
C859       N1028   1.371       .  A
C859        N864   1.352       .  A
C859        C984   1.464       .  S
N860       C1531   1.373       .  A
N860        C861   1.375       .  A
C861        N862   1.365       .  A
C861        C981   1.474       .  S
N862        C863   1.363       .  A
C863       N1536   1.359   1_554  A
C863       C1650   1.493   1_554  S
N864       C1031   1.358       .  A
C865        N866   1.379       .  A
C865        N870   1.347       .  A
C865        C975   1.464       .  S
N866       C1035   1.382       .  A
C867       N1538   1.376       .  A
C867        N868   1.362       .  A
C867        C973   1.457       .  S
N868       C1541   1.357   1_554  A
C869       N1036   1.352       .  A
C869        N870   1.348       .  A
C869       C1137   1.458       .  S
C871        N872   1.359       .  A
C871        N876   1.368       .  A
C871        C965   1.444       .  S
N872        C873   1.354   1_554  A
C873       N1546   1.356       .  A
C873       C1633   1.473       .  S
N874       C1041   1.353       .  A
N874        C875   1.348       .  A
C875       N1044   1.365       .  A
C875        C967   1.446       .  S
N876       C1547   1.365       .  A
O877      Mg2733   2.133       .  S
O877       C2592   1.227       .  S
C878        O891   1.231       .  S
C878        O915   1.267       .  A
C878        H917   1.081       .  S
Mg879      O1076   2.082       .  S
Mg879       O919   2.331       .  S
Mg879       O890   2.353       .  S
O880       Mg905   2.143       .  S
O881        C912   1.272       .  A
O881       Mg905   2.303       .  S
C882        C970   1.475       .  S
C882        O884   1.267       .  A
C882        O896   1.274       .  A
O883      Mg2565   2.290       .  S
O884       Mg916   2.257       .  S
Mg885      O3229   2.142   1_455  S
Mg885       O891   2.167       .  S
Mg885      O2563   2.292   1_455  S
Mg885      O2579   2.258   1_455  S
Mg885      O1559   2.258       .  S
C886        C977   1.465       .  S
C886        O924   1.268       .  A
C886        O892   1.253       .  A
O887        C894   1.259       .  A
O887      Mg1053   2.255       .  S
H888        C901   1.082       .  S
C889        O903   1.232       .  S
C889       O2584   1.262       .  A
C889        H914   1.056   1_656  S
O890        C913   1.280       .  A
O891      Mg1577   2.152       .  S
O892      Mg1090   2.222       .  S
C893        C986   1.458       .  S
C893        O906   1.265       .  A
C893        O898   1.277       .  A
C894        C993   1.463       .  S
C894        O921   1.270       .  A
Mg895      O2582   2.170       .  S
Mg895      O1071   2.138   1_655  S
Mg895      O2744   2.306       .  S
Mg895       O897   2.358   1_655  S
Mg895       O924   2.331   1_655  S
O896      Mg3247   2.275       .  S
O897        C901   1.281       .  A
O898      Mg1577   2.316       .  S
O899        C918   1.277       .  A
O899      Mg2565   2.296       .  S
O900        C920   1.255       .  A
O900      Mg1084   2.219       .  S
O902      Mg2575   2.151       .  S
O902      Mg1084   2.165       .  S
O902        C913   1.237       .  S
O903      Mg1567   2.123       .  S
O903       Mg922   2.146   1_655  S
O904       C2569   1.264       .  A
O904       Mg916   2.272       .  S
Mg905      O1059   2.109       .  S
Mg905      O1066   2.253       .  S
Mg905       O921   2.306       .  S
H907        C912   1.059   1_655  S
O908      Mg1551   2.101   1_565  S
O908       Mg916   2.137       .  S
O908        C911   1.231   1_565  S
H909        C911   1.078       .  S
H910        C913   1.081       .  S
C912       O2557   1.230       .  S
Mg916      O1574   2.143       .  S
Mg916      O1572   2.219       .  S
C918       C1001   1.466       .  S
C918        O923   1.264       .  A
O919        C920   1.268       .  A
C920        C962   1.469       .  S
Mg922      O1564   2.265       .  S
C925        C926   1.531       .  S
C925        C931   1.543       .  S
C925        C929   1.537       .  S
C925       C1000   1.486       .  S
C926        H933   1.087       .  S
C926        C927   1.362       .  D
C927       C2608   1.567       .  S
C927        C982   1.477       .  S
C928       C2607   1.561       .  S
C928        C932   1.539       .  S
C928        C930   1.558       .  S
C928        H934   1.111       .  S
C929        H935   1.087       .  S
C929       C2610   1.368       .  D
C930       C2609   1.375       .  D
C930        C976   1.476       .  S
C931        H936   1.084       .  S
C931       C2612   1.369       .  D
C932       C2611   1.368       .  D
C932       C1006   1.456       .  S
C937        C938   1.528       .  S
C937        C943   1.538       .  S
C937        C941   1.529       .  S
C937        C966   1.477       .  S
C938        H945   1.087       .  S
C938        C939   1.365       .  D
C939        C983   1.470       .  S
C940        C944   1.543       .  S
C940        C942   1.551       .  S
C940        H946   1.102       .  S
C941        H947   1.087       .  S
C942        C990   1.457       .  S
C943        H948   1.082       .  S
C944       C1008   1.458       .  S
C949        C950   1.522       .  S
C949        C955   1.541       .  S
C949        C953   1.531       .  S
C949        C998   1.481       .  S
C950        H957   1.088       .  S
C950        C951   1.360       .  D
C951        C952   1.556       .  S
C951        C968   1.453       .  S
C952        C956   1.546       .  S
C952        C954   1.558       .  S
C952        H958   1.109       .  S
C953        H959   1.087       .  S
C953        C954   1.364       .  D
C954        C974   1.463       .  S
C955        H960   1.084       .  S
C955        C956   1.373       .  D
C956        C992   1.460       .  S
C961       C1041   1.481       .  S
C961       H1131   1.086       .  S
C961        C962   1.347       .  D
C962        H964   1.087       .  S
H963       C1633   1.086       .  S
C965        C966   1.211       .  T
C967        C968   1.213       .  T
C969       C1541   1.463       .  S
C969        H971   1.088       .  S
C969        C970   1.338       .  D
C970       H1644   1.087       .  S
H972       C1138   1.086       .  S
C973        C974   1.220       .  T
C975        C976   1.226       .  T
C977        H979   1.087       .  S
C977        C978   1.341       .  D
C978       C1031   1.481       .  S
C978       H1148   1.086       .  S
H980       C1650   1.086       .  S
C981        C982   1.229       .  T
C983        C984   1.223       .  T
C985        H987   1.087       .  S
C985        C986   1.348       .  D
C986       H1660   1.087       .  S
H988       C1154   1.087       .  S
C989        C990   1.216       .  T
C991        C992   1.216       .  T
C993        H995   1.087       .  S
C993        C994   1.343       .  D
C994        H996   1.087       .  S
C997        C998   1.214       .  T
C999       C1000   1.216       .  T
C1001      H1003   1.086       .  S
C1001      C1002   1.338       .  D
C1002      H1676   1.086       .  S
H1004      C1170   1.088       .  S
C1005      C1006   1.214       .  T
C1007      C1008   1.215       .  T
C1009      N1010   1.347       .  A
C1009      N1014   1.372       .  A
C1009      C1175   1.448       .  S
N1010      C1179   1.345       .  A
C1011      N1012   1.360       .  A
C1011      C1170   1.467       .  S
N1012      C1013   1.363       .  A
C1013      C1173   1.456       .  S
N1014      C1181   1.375       .  A
C1015      N1016   1.364       .  A
C1015      N1020   1.343       .  A
C1015      C1167   1.436       .  S
N1016      C1185   1.370       .  A
C1017      N1018   1.358       .  A
C1017      C1165   1.450       .  S
C1019      N1186   1.357       .  A
C1019      N1020   1.347       .  A
C1019      C1162   1.467       .  S
C1021      N1022   1.373       .  A
C1021      N1026   1.352       .  A
C1021      C1157   1.445       .  S
C1023      N1190   1.368       .  A
C1023      N1024   1.344       .  A
C1023      C1159   1.439       .  S
N1024      C1193   1.346       .  A
C1025      N1026   1.348       .  A
C1025      C1153   1.467       .  S
C1027      N1196   1.373       .  A
C1027      N1032   1.358       .  A
C1027      C1152   1.467       .  S
N1028      C1029   1.375       .  A
C1029      N1030   1.359       .  A
C1029      C1149   1.456       .  S
N1030      C1031   1.355       .  A
N1032      C1199   1.360       .  A
C1033      N1034   1.380       .  A
C1033      N1038   1.338       .  A
C1033      C1143   1.456       .  S
N1034      C1203   1.384       .  A
C1035      N1036   1.358       .  A
C1035      C1141   1.463       .  S
C1037      N1204   1.344       .  A
C1037      N1038   1.346       .  A
C1037      C1305   1.456       .  S
C1039      N1040   1.367       .  A
C1039      N1044   1.370       .  A
C1039      C1133   1.456       .  S
N1040      C1041   1.362       .  A
N1042      C1209   1.346       .  A
N1042      C1043   1.340       .  A
C1043      N1212   1.370       .  A
C1043      C1135   1.447       .  S
O1045     Mg2901   2.218       .  S
O1045      C2760   1.225       .  S
C1046      O1059   1.235       .  S
C1046      O1083   1.267       .  A
C1046      H1085   1.081       .  S
Mg1047     O1244   2.189       .  S
Mg1047     O1087   2.274       .  S
Mg1047     O1058   2.334       .  S
O1048     Mg1073   2.117       .  S
O1049      C1080   1.275       .  A
O1049     Mg1073   2.314       .  S
C1050      C1138   1.473       .  S
C1050      O1052   1.265       .  A
C1050      O1064   1.263       .  A
O1051     Mg2733   2.255       .  S
O1052     Mg1084   2.281       .  S
Mg1053     O2557   2.124       .  S
Mg1053     O1059   2.121       .  S
Mg1053     O2731   2.244       .  S
Mg1053     O2747   2.268       .  S
C1054      C1145   1.480       .  S
C1054      O1092   1.267       .  A
C1054      O1060   1.261       .  A
O1055      C1062   1.271       .  A
O1055     Mg1221   2.302       .  S
H1056      C1069   1.066       .  S
C1057      O1071   1.228       .  S
C1057      O2752   1.271   1_455  A
C1057      H1082   1.081       .  S
O1058      C1081   1.277       .  A
O1060     Mg1258   2.234       .  S
C1061      C1154   1.455       .  S
C1061      O1074   1.273       .  A
C1061      O1066   1.269       .  A
C1062      C1161   1.461       .  S
C1062      O1089   1.266       .  A
Mg1063     O2750   2.119       .  S
Mg1063     O1239   2.126   1_655  S
Mg1063     O2912   2.308       .  S
Mg1063     O1065   2.293   1_655  S
Mg1063     O1092   2.315   1_655  S
O1064     Mg2575   2.202       .  S
O1065      C1069   1.272       .  A
O1067      C1086   1.267       .  A
O1067     Mg2733   2.242       .  S
O1068      C1088   1.266       .  A
O1068     Mg1252   2.279       .  S
O1070     Mg2743   2.155       .  S
O1070     Mg1252   2.166       .  S
O1070      C1081   1.232       .  S
O1071     Mg1090   2.174       .  S
O1072      C2737   1.259       .  A
O1072     Mg1084   2.203       .  S
Mg1073     O1227   2.139       .  S
Mg1073     O1234   2.312       .  S
Mg1073     O1089   2.222       .  S
H1075      C1080   1.078   1_655  S
O1076     Mg1084   2.111       .  S
O1076      C1079   1.233   1_565  S
H1077      C1079   1.082   1_565  S
H1078      C1081   1.078       .  S
C1080      O2725   1.229   1_455  S
C1086      C1169   1.472       .  S
C1086      O1091   1.277       .  A
O1087      C1088   1.263       .  A
C1088      C1130   1.466       .  S
C1093      C1094   1.531       .  S
C1093      C1099   1.549       .  S
C1093      C1097   1.526       .  S
C1093      C1168   1.477       .  S
C1094      H1101   1.087       .  S
C1094      C1095   1.360       .  D
C1095      C2776   1.555       .  S
C1095      C1150   1.462       .  S
C1096      C2775   1.565       .  S
C1096      C1100   1.538       .  S
C1096      C1098   1.575       .  S
C1096      H1102   1.111       .  S
C1097      H1103   1.086       .  S
C1097      C2778   1.361       .  D
C1098      C2777   1.360       .  D
C1098      C1144   1.471       .  S
C1099      H1104   1.085       .  S
C1099      C2780   1.374       .  D
C1100      C2779   1.375       .  D
C1100      C1174   1.462       .  S
C1105      C1106   1.535       .  S
C1105      C1111   1.535       .  S
C1105      C1109   1.532       .  S
C1105      C1134   1.489       .  S
C1106      H1113   1.086       .  S
C1106      C1107   1.370       .  D
C1107      C1151   1.473       .  S
C1108      C1112   1.540       .  S
C1108      C1110   1.547       .  S
C1108      H1114   1.110       .  S
C1109      H1115   1.088       .  S
C1110      C1158   1.455       .  S
C1111      H1116   1.085       .  S
C1112      C1176   1.461       .  S
C1117      C1118   1.522       .  S
C1117      C1123   1.544       .  S
C1117      C1121   1.530       .  S
C1117      C1166   1.483       .  S
C1118      H1125   1.088       .  S
C1118      C1119   1.360       .  D
C1119      C1120   1.560       .  S
C1119      C1136   1.459       .  S
C1120      C1124   1.537       .  S
C1120      C1122   1.564       .  S
C1120      H1126   1.110       .  S
C1121      H1127   1.088       .  S
C1121      C1122   1.364       .  D
C1122      C1142   1.470       .  S
C1123      H1128   1.086       .  S
C1123      C1124   1.376       .  D
C1124      C1160   1.453       .  S
C1129      C1209   1.479       .  S
C1129      H1299   1.085       .  S
C1129      C1130   1.352       .  D
C1130      H1132   1.087       .  S
C1133      C1134   1.218       .  T
C1135      C1136   1.217       .  T
C1137      H1139   1.088       .  S
C1137      C1138   1.344       .  D
H1140      C1306   1.088       .  S
C1141      C1142   1.224       .  T
C1143      C1144   1.224       .  T
C1145      H1147   1.086       .  S
C1145      C1146   1.349       .  D
C1146      C1199   1.487       .  S
C1146      H1316   1.087       .  S
C1149      C1150   1.218       .  T
C1151      C1152   1.225       .  T
C1153      H1155   1.087       .  S
C1153      C1154   1.338       .  D
H1156      C1322   1.087       .  S
C1157      C1158   1.214       .  T
C1159      C1160   1.212       .  T
C1161      H1163   1.087       .  S
C1161      C1162   1.349       .  D
C1162      H1164   1.087       .  S
C1165      C1166   1.215       .  T
C1167      C1168   1.210       .  T
C1169      H1171   1.086       .  S
C1169      C1170   1.336       .  D
H1172      C1338   1.088       .  S
C1173      C1174   1.218       .  T
C1175      C1176   1.216       .  T
C1177      N1178   1.351       .  A
C1177      N1182   1.368       .  A
C1177      C1343   1.448       .  S
N1178      C1347   1.350       .  A
C1179      N1180   1.357       .  A
C1179      C1338   1.463       .  S
N1180      C1181   1.358       .  A
C1181      C1341   1.456       .  S
N1182      C1349   1.372       .  A
C1183      N1184   1.369       .  A
C1183      N1188   1.354       .  A
C1183      C1335   1.453       .  S
N1184      C1353   1.370       .  A
C1185      N1186   1.361       .  A
C1185      C1333   1.444       .  S
C1187      N1354   1.355       .  A
C1187      N1188   1.357       .  A
C1187      C1330   1.474       .  S
C1189      N1190   1.372       .  A
C1189      N1194   1.360       .  A
C1189      C1325   1.449       .  S
C1191      N1358   1.367       .  A
C1191      N1192   1.351       .  A
C1191      C1327   1.440       .  S
N1192      C1361   1.352       .  A
C1193      N1194   1.355       .  A
C1193      C1321   1.469       .  S
C1195      N1364   1.371       .  A
C1195      N1200   1.351       .  A
C1195      C1320   1.458       .  S
N1196      C1197   1.374       .  A
C1197      N1198   1.360       .  A
C1197      C1317   1.467       .  S
N1198      C1199   1.360       .  A
N1200      C1367   1.355       .  A
C1201      N1202   1.380       .  A
C1201      N1206   1.344       .  A
C1201      C1311   1.458       .  S
N1202      C1371   1.382       .  A
C1203      N1204   1.354       .  A
C1203      C1309   1.452       .  S
C1205      N1372   1.351       .  A
C1205      N1206   1.344       .  A
C1205      C1473   1.454       .  S
C1207      N1208   1.369       .  A
C1207      N1212   1.377       .  A
C1207      C1301   1.465       .  S
N1208      C1209   1.362       .  A
N1210      C1377   1.358       .  A
N1210      C1211   1.355       .  A
C1211      N1380   1.367       .  A
C1211      C1303   1.453       .  S
O1213     Mg3069   2.139       .  S
O1213      C2928   1.229       .  S
C1214      O1227   1.230       .  S
C1214      O1251   1.268       .  A
C1214      H1253   1.081       .  S
Mg1215     O1412   2.078       .  S
Mg1215     O1255   2.352   1_545  S
Mg1215     O1226   2.347   1_545  S
O1216     Mg1241   2.103       .  S
O1217      C1248   1.267       .  A
O1217     Mg1241   2.257       .  S
C1218      C1306   1.437       .  S
C1218      O1220   1.264       .  A
C1218      O1232   1.266       .  A
O1219     Mg2901   2.279       .  S
O1220     Mg1252   2.203       .  S
Mg1221     O2725   2.162   1_455  S
Mg1221     O1227   2.158       .  S
Mg1221     O2899   2.299   1_455  S
Mg1221     O2915   2.260   1_455  S
C1222      C1313   1.474       .  S
C1222      O1260   1.265       .  A
C1222      O1228   1.264       .  A
O1223      C1230   1.258       .  A
O1223     Mg1389   2.244       .  S
H1224      C1237   1.075       .  S
C1225      O1239   1.226       .  S
C1225      O2920   1.269   1_455  A
C1225      H1250   1.080       .  S
O1226      C1249   1.280       .  A
O1228     Mg1426   2.275       .  S
C1229      C1322   1.462       .  S
C1229      O1242   1.264       .  A
C1229      O1234   1.275       .  A
C1230      C1329   1.466       .  S
C1230      O1257   1.265       .  A
Mg1231     O2918   2.128       .  S
Mg1231     O1407   2.123   1_655  S
Mg1231     O3080   2.250       .  S
Mg1231     O1233   2.298   1_655  S
Mg1231     O1260   2.289   1_655  S
O1232     Mg2743   2.234       .  S
O1233      C1237   1.272       .  A
O1235      C1254   1.274       .  A
O1235     Mg2901   2.256       .  S
O1236      C1256   1.251       .  A
O1236     Mg1420   2.227       .  S
O1238     Mg2911   2.135       .  S
O1238     Mg1420   2.132       .  S
O1238      C1249   1.236       .  S
O1239     Mg1258   2.173       .  S
O1240      C2905   1.269       .  A
O1240     Mg1252   2.294       .  S
Mg1241     O1395   2.144       .  S
Mg1241     O1402   2.268       .  S
Mg1241     O1257   2.293       .  S
H1243      C1248   1.054   1_655  S
O1244     Mg1252   2.175       .  S
O1244      C1247   1.255       .  A
H1245      C1247   1.064       .  S
H1246      C1249   1.082       .  S
C1248      O2893   1.234   1_455  S
C1254      C1337   1.465       .  S
C1254      O1259   1.278       .  A
O1255      C1256   1.272       .  A
C1256      C1298   1.465       .  S
C1261      C1262   1.529       .  S
C1261      C1267   1.540       .  S
C1261      C1265   1.539       .  S
C1261      C1336   1.488       .  S
C1262      H1269   1.087       .  S
C1262      C1263   1.360       .  D
C1263      C2944   1.565       .  S
C1263      C1318   1.472       .  S
C1264      C2943   1.567       .  S
C1264      C1268   1.542       .  S
C1264      C1266   1.559       .  S
C1264      H1270   1.111       .  S
C1265      H1271   1.085       .  S
C1265      C2946   1.370       .  D
C1266      C2945   1.371       .  D
C1266      C1312   1.472       .  S
C1267      H1272   1.081       .  S
C1267      C2948   1.369   1_455  D
C1268      C2947   1.370       .  D
C1268      C1342   1.463       .  S
C1273      C1274   1.531       .  S
C1273      C1279   1.545       .  S
C1273      C1277   1.532       .  S
C1273      C1302   1.498       .  S
C1274      H1281   1.087       .  S
C1274      C1275   1.366       .  D
C1275      C1319   1.465       .  S
C1276      C1280   1.544       .  S
C1276      C1278   1.550       .  S
C1276      H1282   1.109       .  S
C1277      H1283   1.087       .  S
C1278      C1326   1.455       .  S
C1279      H1284   1.081       .  S
C1280      C1344   1.458       .  S
C1285      C1286   1.521       .  S
C1285      C1291   1.536       .  S
C1285      C1289   1.539       .  S
C1285      C1334   1.477       .  S
C1286      H1293   1.088       .  S
C1286      C1287   1.356       .  D
C1287      C1288   1.558       .  S
C1287      C1304   1.457       .  S
C1288      C1292   1.541       .  S
C1288      C1290   1.552       .  S
C1288      H1294   1.100       .  S
C1289      H1295   1.087       .  S
C1289      C1290   1.371       .  D
C1290      C1310   1.466       .  S
C1291      H1296   1.087       .  S
C1291      C1292   1.369       .  D
C1292      C1328   1.451       .  S
C1297      C1377   1.476       .  S
C1297      H1467   1.086       .  S
C1297      C1298   1.339       .  D
C1298      H1300   1.087       .  S
C1301      C1302   1.223       .  T
C1303      C1304   1.217       .  T
C1305      H1307   1.087       .  S
C1305      C1306   1.335       .  D
H1308      C1474   1.086       .  S
C1309      C1310   1.220       .  T
C1311      C1312   1.223       .  T
C1313      H1315   1.087       .  S
C1313      C1314   1.350       .  D
C1314      C1367   1.484       .  S
C1314      H1484   1.087       .  S
C1317      C1318   1.225       .  T
C1319      C1320   1.220       .  T
C1321      H1323   1.087       .  S
C1321      C1322   1.349       .  D
H1324      C1490   1.087       .  S
C1325      C1326   1.214       .  T
C1327      C1328   1.210       .  T
C1329      H1331   1.087       .  S
C1329      C1330   1.344       .  D
C1330      H1332   1.087       .  S
C1333      C1334   1.211       .  T
C1335      C1336   1.217       .  T
C1337      H1339   1.085       .  S
C1337      C1338   1.335       .  D
H1340      C1506   1.088       .  S
C1341      C1342   1.219       .  T
C1343      C1344   1.215       .  T
C1345      N1346   1.355       .  A
C1345      N1350   1.371       .  A
C1345      C1511   1.457       .  S
N1346      C1515   1.356       .  A
C1347      N1348   1.356       .  A
C1347      C1506   1.468       .  S
N1348      C1349   1.358       .  A
C1349      C1509   1.449       .  S
N1350      C1517   1.373       .  A
C1351      N1352   1.368       .  A
C1351      N1356   1.344       .  A
C1351      C1503   1.446       .  S
N1352      C1521   1.373       .  A
C1353      N1354   1.357       .  A
C1353      C1501   1.450       .  S
C1355      N1522   1.362       .  A
C1355      N1356   1.349       .  A
C1355      C1498   1.478       .  S
C1357      N1358   1.368       .  A
C1357      N1362   1.354       .  A
C1357      C1493   1.436       .  S
C1359      N1526   1.371       .  A
C1359      N1360   1.344       .  A
C1359      C1495   1.439       .  S
N1360      C1529   1.345       .  A
C1361      N1362   1.349       .  A
C1361      C1489   1.467       .  S
C1363      N1532   1.376       .  A
C1363      N1368   1.352       .  A
C1363      C1488   1.469       .  S
N1364      C1365   1.374       .  A
C1365      N1366   1.364       .  A
C1365      C1485   1.468       .  S
N1366      C1367   1.361       .  A
N1368      C1535   1.357       .  A
C1369      N1370   1.379       .  A
C1369      N1374   1.341       .  A
C1369      C1479   1.456       .  S
N1370      C1539   1.382       .  A
C1371      N1372   1.357       .  A
C1371      C1477   1.466       .  S
C1373      N1540   1.344       .  A
C1373      N1374   1.347       .  A
C1373      C1641   1.456       .  S
C1375      N1376   1.359       .  A
C1375      N1380   1.369       .  A
C1375      C1469   1.447       .  S
N1376      C1377   1.354       .  A
N1378      C1545   1.348       .  A
N1378      C1379   1.341       .  A
C1379      N1548   1.368       .  A
C1379      C1471   1.446       .  S
O1381     Mg3237   2.206       .  S
O1381      C3096   1.231       .  S
C1382      O1395   1.234       .  S
C1382      O1419   1.268       .  A
C1382      H1421   1.081       .  S
Mg1383     O1580   2.116   1_545  S
Mg1383     O1423   2.277   1_545  S
Mg1383     O1394   2.333   1_545  S
O1384     Mg1409   2.095       .  S
O1385      C1416   1.266   1_455  A
O1385     Mg1409   2.236       .  S
C1386      C1474   1.471       .  S
C1386      O1388   1.266       .  A
C1386      O1400   1.266       .  A
O1387     Mg3069   2.278       .  S
O1388     Mg1420   2.268       .  S
Mg1389     O2893   2.141   1_455  S
Mg1389     O1395   2.157       .  S
Mg1389     O3067   2.298   1_455  S
Mg1389     O3083   2.250       .  S
C1390      C1481   1.463       .  S
C1390      O1428   1.264       .  A
C1390      O1396   1.247       .  A
O1391      C1398   1.271       .  A
O1391     Mg1557   2.269       .  S
H1392      C1405   1.082       .  S
C1393      O1407   1.231   1_655  S
C1393      O3088   1.262       .  A
C1393      H1418   1.062   1_655  S
O1394      C1417   1.276       .  A
O1396     Mg1594   2.209       .  S
C1397      C1490   1.461       .  S
C1397      O1410   1.273       .  A
C1397      O1402   1.271       .  A
C1398      C1497   1.467       .  S
C1398      O1425   1.268       .  A
Mg1399     O3086   2.161       .  S
Mg1399     O1575   2.143   1_655  S
Mg1399     O3248   2.228       .  S
Mg1399     O1401   2.342   1_655  S
Mg1399     O1428   2.320   1_655  S
O1400     Mg2911   2.217       .  S
O1401      C1405   1.279       .  A
O1403      C1422   1.271       .  A
O1403     Mg3069   2.271       .  S
O1404      C1424   1.270       .  A
O1404     Mg1588   2.295       .  S
O1406     Mg3079   2.173       .  S
O1406     Mg1588   2.158       .  S
O1406      C1417   1.229       .  S
O1407     Mg1426   2.131       .  S
O1408      C3073   1.261       .  A
O1408     Mg1420   2.222       .  S
Mg1409     O1563   2.201       .  S
Mg1409     O1570   2.321       .  S
Mg1409     O1425   2.286       .  S
H1411      C1416   1.079       .  S
O1412     Mg1420   2.120   1_545  S
O1412      C1415   1.234       .  S
H1413      C1415   1.081       .  S
H1414      C1417   1.077       .  S
C1416      O3061   1.232       .  S
C1422      C1505   1.473       .  S
C1422      O1427   1.270       .  A
O1423      C1424   1.266       .  A
C1424      C1466   1.470       .  S
C1429      C1430   1.530       .  S
C1429      C1435   1.548       .  S
C1429      C1433   1.530       .  S
C1429      C1504   1.486       .  S
C1430      H1437   1.087       .  S
C1430      C1431   1.363       .  D
C1431      C3112   1.564   1_455  S
C1431      C1486   1.471       .  S
C1432      C3111   1.562       .  S
C1432      C1436   1.530       .  S
C1432      C1434   1.565       .  S
C1432      H1438   1.111       .  S
C1433      H1439   1.087       .  S
C1433      C3114   1.364   1_455  D
C1434      C3113   1.365       .  D
C1434      C1480   1.471       .  S
C1435      H1440   1.085       .  S
C1435      C3116   1.372   1_455  D
C1436      C3115   1.374       .  D
C1436      C1510   1.455       .  S
C1441      C1442   1.529       .  S
C1441      C1447   1.534       .  S
C1441      C1445   1.532       .  S
C1441      C1470   1.481       .  S
C1442      H1449   1.087       .  S
C1442      C1443   1.366       .  D
C1443      C1487   1.476       .  S
C1444      C1448   1.547       .  S
C1444      C1446   1.541       .  S
C1444      H1450   1.111       .  S
C1445      H1451   1.087       .  S
C1446      C1494   1.445       .  S
C1447      H1452   1.086       .  S
C1448      C1512   1.465       .  S
C1453      C1454   1.518       .  S
C1453      C1459   1.544       .  S
C1453      C1457   1.535       .  S
C1453      C1502   1.484       .  S
C1454      H1461   1.088       .  S
C1454      C1455   1.357       .  D
C1455      C1456   1.562       .  S
C1455      C1472   1.456       .  S
C1456      C1460   1.537       .  S
C1456      C1458   1.558       .  S
C1456      H1462   1.107       .  S
C1457      H1463   1.081       .  S
C1457      C1458   1.367       .  D
C1458      C1478   1.474       .  S
C1459      H1464   1.086       .  S
C1459      C1460   1.376       .  D
C1460      C1496   1.454       .  S
C1465      C1545   1.487       .  S
C1465      H1635   1.086       .  S
C1465      C1466   1.355       .  D
C1466      H1468   1.086       .  S
C1469      C1470   1.213       .  T
C1471      C1472   1.215       .  T
C1473      H1475   1.088       .  S
C1473      C1474   1.342       .  D
H1476      C1642   1.088       .  S
C1477      C1478   1.226       .  T
C1479      C1480   1.223       .  T
C1481      H1483   1.087       .  S
C1481      C1482   1.339       .  D
C1482      C1535   1.475       .  S
C1482      H1652   1.087       .  S
C1485      C1486   1.225       .  T
C1487      C1488   1.227       .  T
C1489      H1491   1.087       .  S
C1489      C1490   1.339       .  D
H1492      C1658   1.087       .  S
C1493      C1494   1.207       .  T
C1495      C1496   1.213       .  T
C1497      H1499   1.086       .  S
C1497      C1498   1.353       .  D
C1498      H1500   1.086       .  S
C1501      C1502   1.215       .  T
C1503      C1504   1.215       .  T
C1505      H1507   1.086       .  S
C1505      C1506   1.341       .  D
H1508      C1674   1.085       .  S
C1509      C1510   1.214       .  T
C1511      C1512   1.219       .  T
C1513      N1514   1.359   1_554  A
C1513      N1518   1.371       .  A
C1513      C1679   1.460       .  S
C1515      N1516   1.352       .  A
C1515      C1674   1.470       .  S
N1516      C1517   1.355       .  A
C1517      C1677   1.451       .  S
C1519      N1520   1.365       .  A
C1519      N1524   1.351   1_554  A
C1519      C1671   1.445       .  S
C1521      N1522   1.366       .  A
C1521      C1669   1.461       .  S
C1523      N1524   1.354       .  A
C1523      C1666   1.475       .  S
C1525      N1526   1.374       .  A
C1525      N1530   1.359       .  A
C1525      C1661   1.452       .  S
C1527      N1528   1.342       .  A
C1527      C1663   1.441       .  S
C1529      N1530   1.354       .  A
C1529      C1657   1.462       .  S
C1531      N1536   1.355   1_554  A
C1531      C1656   1.466       .  S
N1532      C1533   1.380       .  A
C1533      N1534   1.357       .  A
C1533      C1653   1.461       .  S
N1534      C1535   1.352       .  A
C1537      N1538   1.372       .  A
C1537      N1542   1.345       .  A
C1537      C1647   1.449       .  S
C1539      N1540   1.353       .  A
C1539      C1645   1.451       .  S
C1541      N1542   1.346   1_556  A
C1543      N1544   1.371       .  A
C1543      N1548   1.374       .  A
C1543      C1637   1.469       .  S
N1544      C1545   1.366       .  A
N1546      C1547   1.351   1_556  A
C1547      C1639   1.447       .  S
O1549     Mg2565   2.169       .  S
O1549      C3264   1.238       .  S
C1550      O1563   1.233       .  S
C1550      O1587   1.267       .  A
C1550      H1589   1.081       .  S
Mg1551     O1591   2.334   1_545  S
Mg1551     O1562   2.363   1_545  S
O1552     Mg1577   2.130       .  S
O1553      C1584   1.276   1_455  A
O1553     Mg1577   2.319       .  S
C1554      C1642   1.442       .  S
C1554      O1556   1.266       .  A
C1554      O1568   1.265       .  A
O1555     Mg3237   2.291       .  S
O1556     Mg1588   2.216       .  S
Mg1557     O3061   2.197   1_455  S
Mg1557     O1563   2.221       .  S
Mg1557     O3235   2.288   1_455  S
Mg1557     O3251   2.276   1_455  S
C1558      C1649   1.484       .  S
C1558      O1596   1.266   1_455  A
C1558      O1564   1.262       .  A
O1559      C1566   1.264       .  A
H1560      C1573   1.077       .  S
C1561      O1575   1.233       .  S
C1561      O3256   1.269   1_455  A
C1561      H1586   1.081       .  S
O1562      C1585   1.282       .  A
C1565      C1658   1.462       .  S
C1565      O1578   1.265       .  A
C1565      O1570   1.278       .  A
C1566      C1665   1.469       .  S
C1566      O1593   1.267       .  A
Mg1567     O3254   2.148       .  S
Mg1567     O2576   2.239       .  S
Mg1567     O1569   2.321   1_655  S
Mg1567     O1596   2.328       .  S
O1568     Mg3079   2.231       .  S
O1569      C1573   1.274       .  A
O1571      C1590   1.278       .  A
O1571     Mg3237   2.280       .  S
O1572      C1592   1.249       .  A
O1574     Mg3247   2.135       .  S
O1574      C1585   1.240       .  S
O1575     Mg1594   2.145       .  S
O1576      C3241   1.267       .  A
O1576     Mg1588   2.290       .  S
Mg1577     O1593   2.287       .  S
H1579      C1584   1.059       .  S
O1580     Mg1588   2.113       .  S
O1580      C1583   1.231       .  S
H1581      C1583   1.070       .  S
H1582      C1585   1.082       .  S
C1584      O3229   1.233       .  S
C1590      C1673   1.462       .  S
C1590      O1595   1.266       .  A
O1591      C1592   1.268       .  A
C1592      C1634   1.459       .  S
C1597      C1598   1.526       .  S
C1597      C1603   1.541       .  S
C1597      C1601   1.536   1_556  S
C1597      C1672   1.481   1_556  S
C1598      H1605   1.088       .  S
C1598      C1599   1.357       .  D
C1599      C3280   1.566       .  S
C1599      C1654   1.467       .  S
C1600      C3279   1.565       .  S
C1600      C1604   1.541       .  S
C1600      C1602   1.560   1_556  S
C1600      H1606   1.111       .  S
C1601      H1607   1.085       .  S
C1601      C3282   1.369       .  D
C1602      C3281   1.366       .  D
C1602      C1648   1.461       .  S
C1603      H1608   1.085       .  S
C1603      C3284   1.369       .  D
C1604      C3283   1.369       .  D
C1604      C1678   1.459       .  S
C1609      C1610   1.536       .  S
C1609      C1615   1.547       .  S
C1609      C1613   1.528       .  S
C1609      C1638   1.502       .  S
C1610      H1617   1.086       .  S
C1610      C1611   1.369       .  D
C1611      C1655   1.472   1_556  S
C1612      C1616   1.554       .  S
C1612      C1614   1.554       .  S
C1612      H1618   1.107       .  S
C1613      H1619   1.087       .  S
C1614      C1662   1.459       .  S
C1615      H1620   1.081       .  S
C1616      C1680   1.466   1_556  S
C1621      C1622   1.522       .  S
C1621      C1627   1.548       .  S
C1621      C1625   1.537       .  S
C1621      C1670   1.494       .  S
C1622      H1629   1.088       .  S
C1622      C1623   1.358       .  D
C1623      C1624   1.554       .  S
C1623      C1640   1.452       .  S
C1624      C1628   1.535       .  S
C1624      C1626   1.547       .  S
C1624      H1630   1.110       .  S
C1625      H1631   1.081       .  S
C1625      C1626   1.369       .  D
C1626      C1646   1.464       .  S
C1627      H1632   1.086       .  S
C1627      C1628   1.379       .  D
C1628      C1664   1.456   1_556  S
C1633      C1634   1.336       .  D
C1634      H1636   1.087       .  S
C1637      C1638   1.225       .  T
C1639      C1640   1.213   1_554  T
C1641      H1643   1.087       .  S
C1641      C1642   1.334       .  D
C1645      C1646   1.219       .  T
C1647      C1648   1.217       .  T
C1649      H1651   1.086       .  S
C1649      C1650   1.352       .  D
C1653      C1654   1.222       .  T
C1655      C1656   1.224       .  T
C1657      H1659   1.087       .  S
C1657      C1658   1.349       .  D
C1661      C1662   1.217       .  T
C1663      C1664   1.213       .  T
C1665      H1667   1.087       .  S
C1665      C1666   1.347       .  D
C1666      H1668   1.087       .  S
C1669      C1670   1.221       .  T
C1671      C1672   1.213       .  T
C1673      H1675   1.087       .  S
C1673      C1674   1.338       .  D
C1677      C1678   1.216       .  T
C1679      C1680   1.221       .  T
C1681      N1682   1.348       .  A
C1681      N1686   1.363       .  A
C1681      C1847   1.442       .  S
N1682      C1851   1.349       .  A
C1683      N2354   1.343       .  A
C1683      N1684   1.355       .  A
C1683      C1842   1.460   1_554  S
N1684      C1685   1.356       .  A
C1685      N2358   1.380       .  A
C1685      C1845   1.463       .  S
N1686      C1853   1.369       .  A
C1687      N1688   1.366       .  A
C1687      N1692   1.345       .  A
C1687      C1839   1.444       .  S
N1688      C1857   1.371       .  A
C1689      N2360   1.367       .  A
C1689      N1690   1.356       .  A
C1689      C1837   1.438       .  S
N1690      C2363   1.353   1_554  A
C1691      N1858   1.363       .  A
C1691      N1692   1.350       .  A
C1691      C1834   1.480       .  S
C1693      N1694   1.373       .  A
C1693      N1698   1.360       .  A
C1693      C1829   1.453       .  S
N1694      C2367   1.369       .  A
C1695      N1862   1.368       .  A
C1695      N1696   1.350       .  A
C1695      C1831   1.444       .  S
N1696      C1865   1.351       .  A
C1697      N2368   1.351       .  A
C1697      N1698   1.355       .  A
C1697      C1825   1.474   1_554  S
C1699      N1868   1.375       .  A
C1699      N1704   1.357       .  A
C1699      C1824   1.473       .  S
N1700      C2371   1.374       .  A
N1700      C1701   1.376       .  A
C1701      N1702   1.359       .  A
C1701      C1821   1.461       .  S
N1702      C1703   1.355       .  A
C1703      N2376   1.356       .  A
C1703      C2490   1.478   1_554  S
N1704      C1871   1.361       .  A
C1705      N1706   1.381       .  A
C1705      N1710   1.338       .  A
C1705      C1815   1.454       .  S
N1706      C1875   1.385       .  A
C1707      N2378   1.379       .  A
C1707      N1708   1.361       .  A
C1707      C1813   1.458       .  S
N1708      C2381   1.354       .  A
C1709      N1876   1.356       .  A
C1709      N1710   1.337       .  A
C1709      C1977   1.451       .  S
C1711      N1712   1.363       .  A
C1711      N1716   1.367       .  A
C1711      C1805   1.448       .  S
N1712      C1713   1.358       .  A
C1713      N2386   1.357       .  A
C1713      C2473   1.480   1_554  S
N1714      C1881   1.354       .  A
N1714      C1715   1.348       .  A
C1715      N1884   1.369       .  A
C1715      C1807   1.454       .  S
N1716      C2387   1.363       .  A
O1717     Mg2559   2.120   1_445  S
C1718      O1731   1.232       .  S
C1718      O1755   1.268       .  A
C1718      H1757   1.080       .  S
Mg1719     O2557   2.130   1_655  S
Mg1719     O1916   2.110       .  S
Mg1719     O2771   2.276       .  S
Mg1719     O1759   2.310       .  S
Mg1719     O1730   2.353       .  S
O1720     Mg2770   2.113       .  S
O1720     Mg1745   2.117   1_565  S
O1720      C2581   1.229       .  S
O1721      C1752   1.265       .  A
O1721     Mg1745   2.255       .  S
C1722      C1810   1.477       .  S
C1722      O1724   1.267       .  A
C1722      O1736   1.266       .  A
O1723      C2591   1.272       .  A
O1724     Mg1756   2.278       .  S
Mg1725     O1731   2.137       .  S
Mg1725     O2399   2.282       .  S
C1726      C1817   1.467       .  S
C1726      O1764   1.270       .  A
C1726      O1732   1.254       .  A
O1727      C1734   1.273       .  A
O1727     Mg1893   2.270       .  S
H1728      C1741   1.077       .  S
C1729      O1743   1.236       .  S
C1729      H1754   1.056   1_556  S
O1730      C1753   1.280       .  A
O1731     Mg2417   2.123       .  S
O1732     Mg1930   2.235       .  S
C1733      C1826   1.465       .  S
C1733      O1746   1.268   1_545  A
C1733      O1738   1.273       .  A
C1734      C1833   1.472       .  S
C1734      O1761   1.269       .  A
Mg1735     O1911   2.130       .  S
Mg1735     O1737   2.358       .  S
Mg1735     O1764   2.332       .  S
O1737      C1741   1.281       .  A
O1738     Mg2417   2.293       .  S
O1739      C1758   1.269       .  A
O1740      C1760   1.260       .  A
O1740     Mg1924   2.260       .  S
C1741      O2560   1.235       .  S
O1742     Mg1924   2.148       .  S
O1742      C1753   1.233       .  S
O1743     Mg2407   2.137       .  S
O1743     Mg1762   2.132       .  S
O1744     Mg1756   2.214       .  S
Mg1745     O1899   2.176       .  S
Mg1745     O1906   2.315       .  S
Mg1745     O1761   2.286       .  S
O1746     Mg2602   2.240       .  S
H1747      C1752   1.079   1_565  S
O1748     Mg2391   2.066       .  S
O1748     Mg1756   2.124       .  S
O1748      C1751   1.232       .  S
H1749      C1751   1.082       .  S
H1750      C1753   1.077       .  S
C1751      O2563   1.272       .  A
O1755     Mg2602   2.291   1_545  S
Mg1756     O2414   2.166       .  S
Mg1756     O2412   2.223       .  S
C1758      C1841   1.461       .  S
C1758      O1763   1.275       .  A
O1759      C1760   1.266       .  A
C1760      C1802   1.468       .  S
Mg1762     O3232   2.087       .  S
Mg1762     O2404   2.269       .  S
Mg1762     O2586   2.193       .  S
Mg1762     O2595   2.278       .  S
O1763     Mg3231   2.281       .  S
C1765      C1766   1.526       .  S
C1765      C1771   1.551       .  S
C1765      C1769   1.530       .  S
C1765      C1840   1.483       .  S
C1766      H1773   1.088       .  S
C1766      C1767   1.358       .  D
C1767      C1822   1.467       .  S
C1768      C1772   1.547   1_455  S
C1768      C1770   1.564       .  S
C1768      H1774   1.111   1_455  S
C1769      H1775   1.087       .  S
C1770      C1816   1.473   1_455  S
C1771      H1776   1.083       .  S
C1772      C1846   1.472       .  S
C1777      C1778   1.530       .  S
C1777      C1783   1.534       .  S
C1777      C1781   1.533       .  S
C1777      C1806   1.481       .  S
C1778      H1785   1.087       .  S
C1778      C1779   1.366       .  D
C1779      C2620   1.572       .  S
C1779      C1823   1.478       .  S
C1780      C2619   1.560       .  S
C1780      C1784   1.543   1_565  S
C1780      C1782   1.551   1_565  S
C1780      H1786   1.110   1_565  S
C1781      H1787   1.087       .  S
C1781      C2622   1.363       .  D
C1782      C2621   1.365   1_545  D
C1782      C1830   1.459       .  S
C1783      H1788   1.086       .  S
C1783      C2624   1.368       .  D
C1784      C2623   1.369   1_545  D
C1784      C1848   1.452       .  S
C1789      C1790   1.516       .  S
C1789      C1795   1.535       .  S
C1789      C1793   1.531       .  S
C1789      C1838   1.470       .  S
C1790      H1797   1.088       .  S
C1790      C1791   1.356       .  D
C1791      C1792   1.565       .  S
C1791      C1808   1.458       .  S
C1792      C1796   1.549       .  S
C1792      C1794   1.558       .  S
C1792      H1798   1.110       .  S
C1793      H1799   1.086       .  S
C1793      C1794   1.364       .  D
C1794      C1814   1.464       .  S
C1795      H1800   1.087       .  S
C1795      C1796   1.372       .  D
C1796      C1832   1.455       .  S
C1801      C1881   1.481       .  S
C1801      H1971   1.086       .  S
C1801      C1802   1.346       .  D
C1802      H1804   1.087       .  S
H1803      C2473   1.086       .  S
C1805      C1806   1.213       .  T
C1807      C1808   1.218       .  T
C1809      C2381   1.457   1_556  S
C1809      H1811   1.088       .  S
C1809      C1810   1.343       .  D
C1810      H2484   1.085   1_556  S
H1812      C1978   1.087       .  S
C1813      C1814   1.220       .  T
C1815      C1816   1.224       .  T
C1817      H1819   1.087       .  S
C1817      C1818   1.339       .  D
C1818      C1871   1.480       .  S
C1818      H1988   1.087       .  S
H1820      C2490   1.087   1_554  S
C1821      C1822   1.222       .  T
C1823      C1824   1.229       .  T
C1825      H1827   1.087       .  S
C1825      C1826   1.346       .  D
C1826      H2500   1.087       .  S
H1828      C1994   1.087       .  S
C1829      C1830   1.216       .  T
C1831      C1832   1.213       .  T
C1833      H1835   1.086       .  S
C1833      C1834   1.354       .  D
C1834      H1836   1.086       .  S
C1837      C1838   1.208       .  T
C1839      C1840   1.214       .  T
C1841      H1843   1.085       .  S
C1841      C1842   1.333       .  D
C1842      H2516   1.088       .  S
H1844      C2010   1.088       .  S
C1845      C1846   1.224       .  T
C1847      C1848   1.212       .  T
C1849      N1850   1.348       .  A
C1849      N1854   1.373       .  A
C1849      C2015   1.454       .  S
N1850      C2019   1.347       .  A
C1851      N1852   1.359       .  A
C1851      C2010   1.469       .  S
N1852      C1853   1.364       .  A
C1853      C2013   1.446       .  S
N1854      C2021   1.376       .  A
C1855      N1856   1.363       .  A
C1855      N1860   1.354       .  A
C1855      C2007   1.447       .  S
N1856      C2025   1.366       .  A
C1857      N1858   1.366       .  A
C1857      C2005   1.460       .  S
C1859      N2026   1.357       .  A
C1859      N1860   1.357       .  A
C1859      C2002   1.476       .  S
C1861      N1862   1.371       .  A
C1861      N1866   1.358       .  A
C1861      C1997   1.449       .  S
C1863      N2030   1.370       .  A
C1863      N1864   1.347       .  A
C1863      C1999   1.442       .  S
N1864      C2033   1.348       .  A
C1865      N1866   1.354       .  A
C1865      C1993   1.471       .  S
C1867      N2036   1.367       .  A
C1867      N1872   1.352       .  A
C1867      C1992   1.454       .  S
N1868      C1869   1.377       .  A
C1869      N1870   1.356       .  A
C1869      C1989   1.460       .  S
N1870      C1871   1.353       .  A
N1872      C2039   1.356       .  A
C1873      N1874   1.376       .  A
C1873      N1878   1.351       .  A
C1873      C1983   1.465       .  S
N1874      C2043   1.379       .  A
C1875      N1876   1.361       .  A
C1875      C1981   1.471       .  S
C1877      N2044   1.353       .  A
C1877      N1878   1.353       .  A
C1877      C2145   1.467       .  S
C1879      N1880   1.365       .  A
C1879      N1884   1.374       .  A
C1879      C1973   1.462       .  S
N1880      C1881   1.360       .  A
N1882      C2049   1.345       .  A
N1882      C1883   1.342       .  A
C1883      N2052   1.369       .  A
C1883      C1975   1.449       .  S
O1885     Mg2727   2.160   1_455  S
C1886      O1899   1.229       .  S
C1886      O1923   1.267       .  A
C1886      H1925   1.082       .  S
Mg1887     O2725   2.162       .  S
Mg1887     O2084   2.103       .  S
Mg1887     O2939   2.257       .  S
Mg1887     O1927   2.328       .  S
Mg1887     O1898   2.351       .  S
O1888     Mg2938   2.116       .  S
O1888     Mg1913   2.135   1_565  S
O1888      C2749   1.233       .  S
O1889      C1920   1.270       .  A
O1889     Mg1913   2.304       .  S
C1890      C1978   1.463       .  S
C1890      O1892   1.259       .  A
C1890      O1904   1.276       .  A
O1891      C2759   1.264   1_445  A
O1892     Mg1924   2.207       .  S
Mg1893     O1899   2.208       .  S
C1894      C1985   1.478       .  S
C1894      O1932   1.264       .  A
C1894      O1900   1.264       .  A
O1895      C1902   1.265       .  A
O1895     Mg2061   2.272       .  S
H1896      C1909   1.075       .  S
C1897      O1911   1.228       .  S
C1897      H1922   1.081       .  S
O1898      C1921   1.281       .  A
O1900     Mg2098   2.283       .  S
C1901      C1994   1.469       .  S
C1901      O1914   1.271   1_545  A
C1901      O1906   1.277       .  A
C1902      C2001   1.468       .  S
C1902      O1929   1.271       .  A
Mg1903     O2079   2.187       .  S
Mg1903     O1905   2.290       .  S
Mg1903     O1932   2.296       .  S
O1905      C1909   1.273       .  A
O1907      C1926   1.268   1_455  A
O1908      C1928   1.261       .  A
O1908     Mg2092   2.213       .  S
C1909      O2728   1.232       .  S
O1910     Mg2092   2.165       .  S
O1910      C1921   1.240       .  S
O1911     Mg1930   2.151       .  S
O1912     Mg1924   2.293       .  S
Mg1913     O2067   2.119       .  S
Mg1913     O2074   2.296       .  S
Mg1913     O1929   2.284       .  S
O1914     Mg2770   2.234       .  S
H1915      C1920   1.065       .  S
O1916     Mg1924   2.110       .  S
O1916      C1919   1.232       .  S
H1917      C1919   1.074       .  S
H1918      C1921   1.081       .  S
C1919      O2731   1.266   1_655  A
O1923     Mg2770   2.289   1_545  S
C1926      C2009   1.476       .  S
C1926      O1931   1.271       .  A
O1927      C1928   1.267       .  A
C1928      C1970   1.483       .  S
Mg1930     O2560   2.123       .  S
Mg1930     O2754   2.238       .  S
Mg1930     O2763   2.286       .  S
O1931     Mg2559   2.266   1_545  S
C1933      C1934   1.528       .  S
C1933      C1939   1.538       .  S
C1933      C1937   1.541       .  S
C1933      C2008   1.481       .  S
C1934      H1941   1.088       .  S
C1934      C1935   1.357       .  D
C1935      C1990   1.466       .  S
C1936      C1940   1.541       .  S
C1936      C1938   1.557       .  S
C1936      H1942   1.111   1_455  S
C1937      H1943   1.086       .  S
C1938      C1984   1.475   1_455  S
C1939      H1944   1.086       .  S
C1940      C2014   1.451   1_455  S
C1945      C1946   1.530       .  S
C1945      C1951   1.544       .  S
C1945      C1949   1.534       .  S
C1945      C1974   1.495       .  S
C1946      H1953   1.087       .  S
C1946      C1947   1.365       .  D
C1947      C2788   1.558       .  S
C1947      C1991   1.461       .  S
C1948      C2787   1.562       .  S
C1948      C1952   1.545   1_565  S
C1948      C1950   1.551       .  S
C1948      H1954   1.106   1_565  S
C1949      H1955   1.086       .  S
C1949      C2790   1.366       .  D
C1950      C2789   1.361       .  D
C1950      C1998   1.454   1_565  S
C1951      H1956   1.078       .  S
C1951      C2792   1.372       .  D
C1952      C2791   1.372   1_545  D
C1952      C2016   1.466       .  S
C1957      C1958   1.523       .  S
C1957      C1963   1.542       .  S
C1957      C1961   1.537       .  S
C1957      C2006   1.493       .  S
C1958      H1965   1.088       .  S
C1958      C1959   1.360       .  D
C1959      C1960   1.560       .  S
C1959      C1976   1.459       .  S
C1960      C1964   1.539       .  S
C1960      C1962   1.561       .  S
C1960      H1966   1.106       .  S
C1961      H1967   1.081       .  S
C1961      C1962   1.369       .  D
C1962      C1982   1.478       .  S
C1963      H1968   1.086       .  S
C1963      C1964   1.374       .  D
C1964      C2000   1.455       .  S
C1969      C2049   1.471       .  S
C1969      H2139   1.087       .  S
C1969      C1970   1.341       .  D
C1970      H1972   1.080       .  S
C1973      C1974   1.222       .  T
C1975      C1976   1.217       .  T
C1977      H1979   1.088       .  S
C1977      C1978   1.330       .  D
H1980      C2146   1.086       .  S
C1981      C1982   1.228       .  T
C1983      C1984   1.225       .  T
C1985      H1987   1.087       .  S
C1985      C1986   1.353       .  D
C1986      C2039   1.488       .  S
C1986      H2156   1.087       .  S
C1989      C1990   1.221       .  T
C1991      C1992   1.218       .  T
C1993      H1995   1.087       .  S
C1993      C1994   1.347       .  D
H1996      C2162   1.087       .  S
C1997      C1998   1.214       .  T
C1999      C2000   1.213       .  T
C2001      H2003   1.087       .  S
C2001      C2002   1.345       .  D
C2002      H2004   1.087       .  S
C2005      C2006   1.220       .  T
C2007      C2008   1.214       .  T
C2009      H2011   1.086   1_655  S
C2009      C2010   1.341       .  D
H2012      C2178   1.088       .  S
C2013      C2014   1.212       .  T
C2015      C2016   1.220       .  T
C2017      N2018   1.348       .  A
C2017      N2022   1.376       .  A
C2017      C2183   1.458       .  S
N2018      C2187   1.347       .  A
C2019      N2020   1.356       .  A
C2019      C2178   1.463       .  S
N2020      C2021   1.359       .  A
C2021      C2181   1.456       .  S
N2022      C2189   1.379       .  A
C2023      N2024   1.367       .  A
C2023      N2028   1.344       .  A
C2023      C2175   1.443       .  S
N2024      C2193   1.372       .  A
C2025      N2026   1.358       .  A
C2025      C2173   1.446       .  S
C2027      N2194   1.358       .  A
C2027      N2028   1.349       .  A
C2027      C2170   1.472       .  S
C2029      N2030   1.372       .  A
C2029      N2034   1.357       .  A
C2029      C2165   1.449       .  S
C2031      N2198   1.373       .  A
C2031      N2032   1.345       .  A
C2031      C2167   1.449       .  S
N2032      C2201   1.347       .  A
C2033      N2034   1.353       .  A
C2033      C2161   1.466       .  S
C2035      N2204   1.376       .  A
C2035      N2040   1.349       .  A
C2035      C2160   1.466       .  S
N2036      C2037   1.370       .  A
C2037      N2038   1.366       .  A
C2037      C2157   1.465       .  S
N2038      C2039   1.364       .  A
N2040      C2207   1.354       .  A
C2041      N2042   1.376       .  A
C2041      N2046   1.339       .  A
C2041      C2151   1.446       .  S
N2042      C2211   1.380       .  A
C2043      N2044   1.359       .  A
C2043      C2149   1.460       .  S
C2045      N2212   1.355       .  A
C2045      N2046   1.339       .  A
C2045      C2313   1.452       .  S
C2047      N2048   1.371       .  A
C2047      N2052   1.376       .  A
C2047      C2141   1.467       .  S
N2048      C2049   1.364       .  A
N2050      C2217   1.351       .  A
N2050      C2051   1.345       .  A
C2051      N2220   1.371       .  A
C2051      C2143   1.455       .  S
O2053     Mg2895   2.157   1_455  S
C2054      O2067   1.235       .  S
C2054      O2091   1.269       .  A
C2054      H2093   1.081       .  S
Mg2055     O2893   2.128       .  S
Mg2055     O2252   2.102       .  S
Mg2055     O3107   2.290       .  S
Mg2055     O2095   2.310       .  S
Mg2055     O2066   2.356       .  S
O2056     Mg3106   2.144       .  S
O2056     Mg2081   2.124   1_565  S
O2056      C2917   1.232       .  S
O2057      C2088   1.281       .  A
O2057     Mg2081   2.345       .  S
C2058      C2146   1.482       .  S
C2058      O2060   1.272       .  A
C2058      O2072   1.264       .  A
O2059      C2927   1.263   1_455  A
O2060     Mg2092   2.311       .  S
Mg2061     O2067   2.147       .  S
C2062      C2153   1.465       .  S
C2062      O2100   1.268       .  A
C2062      O2068   1.259       .  A
O2063      C2070   1.268       .  A
O2063     Mg2229   2.282       .  S
H2064      C2077   1.082       .  S
C2065      H2090   1.055       .  S
C2065      O2079   1.256       .  A
O2066      C2089   1.280       .  A
O2068     Mg2266   2.244       .  S
C2069      C2162   1.458       .  S
C2069      O2082   1.267   1_545  A
C2069      O2074   1.274       .  A
C2070      C2169   1.462       .  S
C2070      O2097   1.266       .  A
Mg2071     O2247   2.107       .  S
Mg2071     O2073   2.348       .  S
Mg2071     O2100   2.310       .  S
O2073      C2077   1.280       .  A
O2075      C2094   1.265   1_455  A
O2076      C2096   1.256       .  A
O2076     Mg2260   2.246       .  S
C2077      O2896   1.235       .  S
O2078     Mg2260   2.170       .  S
O2078      C2089   1.234       .  S
O2079     Mg2098   2.179       .  S
O2080     Mg2092   2.240       .  S
Mg2081     O2235   2.133       .  S
Mg2081     O2242   2.323       .  S
Mg2081     O2097   2.251       .  S
O2082     Mg2938   2.218       .  S
H2083      C2088   1.080       .  S
O2084     Mg2092   2.147       .  S
O2084      C2087   1.231       .  S
H2085      C2087   1.082       .  S
H2086      C2089   1.079       .  S
C2087      O2899   1.272       .  A
O2091     Mg2938   2.293   1_545  S
C2094      C2177   1.468       .  S
C2094      O2099   1.272       .  A
O2095      C2096   1.265       .  A
C2096      C2138   1.462       .  S
Mg2098     O2728   2.120       .  S
Mg2098     O2922   2.182       .  S
Mg2098     O2931   2.308       .  S
O2099     Mg2727   2.272       .  S
C2101      C2102   1.533       .  S
C2101      C2107   1.547       .  S
C2101      C2105   1.525       .  S
C2101      C2176   1.482       .  S
C2102      H2109   1.087       .  S
C2102      C2103   1.364       .  D
C2103      C2158   1.470       .  S
C2104      C2108   1.536       .  S
C2104      C2106   1.563       .  S
C2104      H2110   1.111   1_455  S
C2105      H2111   1.085       .  S
C2106      C2152   1.464   1_455  S
C2107      H2112   1.085       .  S
C2108      C2182   1.463   1_455  S
C2113      C2114   1.536       .  S
C2113      C2119   1.540       .  S
C2113      C2117   1.533       .  S
C2113      C2142   1.500       .  S
C2114      H2121   1.086       .  S
C2114      C2115   1.370       .  D
C2115      C2956   1.564       .  S
C2115      C2159   1.476       .  S
C2116      C2955   1.564       .  S
C2116      C2120   1.549       .  S
C2116      C2118   1.550       .  S
C2116      H2122   1.109   1_565  S
C2117      H2123   1.085       .  S
C2117      C2958   1.366       .  D
C2118      C2957   1.364       .  D
C2118      C2166   1.456   1_565  S
C2119      H2124   1.081       .  S
C2119      C2960   1.370       .  D
C2120      C2959   1.373       .  D
C2120      C2184   1.471   1_565  S
C2125      C2126   1.519       .  S
C2125      C2131   1.543       .  S
C2125      C2129   1.529       .  S
C2125      C2174   1.478       .  S
C2126      H2133   1.088       .  S
C2126      C2127   1.356       .  D
C2127      C2128   1.566       .  S
C2127      C2144   1.462       .  S
C2128      C2132   1.546       .  S
C2128      C2130   1.563       .  S
C2128      H2134   1.108       .  S
C2129      H2135   1.087       .  S
C2129      C2130   1.363       .  D
C2130      C2150   1.467       .  S
C2131      H2136   1.086       .  S
C2131      C2132   1.377       .  D
C2132      C2168   1.464       .  S
C2137      C2217   1.477       .  S
C2137      H2307   1.086       .  S
C2137      C2138   1.344       .  D
C2138      H2140   1.086       .  S
C2141      C2142   1.224       .  T
C2143      C2144   1.219       .  T
C2145      H2147   1.087       .  S
C2145      C2146   1.351       .  D
H2148      C2314   1.086       .  S
C2149      C2150   1.222       .  T
C2151      C2152   1.218       .  T
C2153      H2155   1.087       .  S
C2153      C2154   1.347       .  D
C2154      C2207   1.482       .  S
C2154      H2324   1.086       .  S
C2157      C2158   1.223       .  T
C2159      C2160   1.226       .  T
C2161      H2163   1.087   1_545  S
C2161      C2162   1.345       .  D
H2164      C2330   1.087       .  S
C2165      C2166   1.215       .  T
C2167      C2168   1.218       .  T
C2169      H2171   1.087       .  S
C2169      C2170   1.349       .  D
C2170      H2172   1.087       .  S
C2173      C2174   1.212       .  T
C2175      C2176   1.213       .  T
C2177      H2179   1.086       .  S
C2177      C2178   1.337       .  D
H2180      C2346   1.088       .  S
C2181      C2182   1.219       .  T
C2183      C2184   1.223       .  T
C2185      N2186   1.353       .  A
C2185      N2190   1.365       .  A
C2185      C2351   1.453       .  S
N2186      C2355   1.355       .  A
C2187      N2188   1.355       .  A
C2187      C2346   1.462       .  S
N2188      C2189   1.358       .  A
C2189      C2349   1.462       .  S
N2190      C2357   1.370       .  A
C2191      N2192   1.367       .  A
C2191      N2196   1.358       .  A
C2191      C2343   1.454       .  S
N2192      C2361   1.368       .  A
C2193      N2194   1.362       .  A
C2193      C2341   1.453       .  S
C2195      N2362   1.352       .  A
C2195      N2196   1.360       .  A
C2195      C2338   1.471       .  S
C2197      N2198   1.377       .  A
C2197      N2202   1.362       .  A
C2197      C2333   1.461       .  S
C2199      N2366   1.370       .  A
C2199      N2200   1.342       .  A
C2199      C2335   1.437       .  S
N2200      C2369   1.339       .  A
C2201      N2202   1.357       .  A
C2201      C2329   1.473       .  S
C2203      N2372   1.375       .  A
C2203      N2208   1.354       .  A
C2203      C2328   1.468       .  S
N2204      C2205   1.380       .  A
C2205      N2206   1.362       .  A
C2205      C2325   1.470       .  S
N2206      C2207   1.358       .  A
N2208      C2375   1.357       .  A
C2209      N2210   1.372       .  A
C2209      N2214   1.344       .  A
C2209      C2319   1.449       .  S
N2210      C2379   1.376       .  A
C2211      N2212   1.361       .  A
C2211      C2317   1.460       .  S
C2213      N2380   1.353       .  A
C2213      N2214   1.346       .  A
C2213      C2481   1.457       .  S
C2215      N2216   1.365       .  A
C2215      N2220   1.376       .  A
C2215      C2309   1.463       .  S
N2216      C2217   1.359       .  A
N2218      C2385   1.349       .  A
N2218      C2219   1.343       .  A
C2219      N2388   1.363       .  A
C2219      C2311   1.439       .  S
O2221     Mg3063   2.161   1_455  S
C2222      O2235   1.231       .  S
C2222      O2259   1.268       .  A
C2222      H2261   1.081       .  S
Mg2223     O3061   2.164       .  S
Mg2223     O2420   2.081       .  S
Mg2223     O3275   2.270       .  S
Mg2223     O2263   2.323       .  S
Mg2223     O2234   2.359       .  S
O2224     Mg3274   2.114       .  S
O2224     Mg2249   2.110   1_565  S
O2224      C3085   1.235       .  S
O2225      C2256   1.275       .  A
O2225     Mg2249   2.316       .  S
C2226      C2314   1.466       .  S
C2226      O2228   1.263       .  A
C2226      O2240   1.275       .  A
O2227      C3095   1.270       .  A
O2228     Mg2260   2.228       .  S
Mg2229     O2235   2.146       .  S
C2230      C2321   1.466       .  S
C2230      O2268   1.268       .  A
C2230      O2236   1.263       .  A
O2231      C2238   1.258       .  A
O2231     Mg2397   2.261       .  S
H2232      C2245   1.079       .  S
C2233      O2247   1.223       .  S
C2233      H2258   1.070       .  S
O2234      C2257   1.282       .  A
O2236     Mg2434   2.274       .  S
C2237      C2330   1.466       .  S
C2237      O2250   1.265       .  A
C2237      O2242   1.276       .  A
C2238      C2337   1.461       .  S
C2238      O2265   1.273       .  A
Mg2239     O2415   2.109       .  S
Mg2239     O2241   2.294       .  S
Mg2239     O2268   2.293       .  S
O2241      C2245   1.274       .  A
O2243      C2262   1.271   1_455  A
O2244      C2264   1.256       .  A
O2244     Mg2428   2.216       .  S
C2245      O3064   1.231       .  S
O2246     Mg2428   2.173       .  S
O2246      C2257   1.241       .  S
O2247     Mg2266   2.137       .  S
O2248     Mg2260   2.298       .  S
Mg2249     O2403   2.094       .  S
Mg2249     O2410   2.317       .  S
Mg2249     O2265   2.310       .  S
O2250     Mg3106   2.215   1_545  S
H2251      C2256   1.068       .  S
O2252     Mg2260   2.126       .  S
O2252      C2255   1.229       .  S
H2253      C2255   1.077       .  S
H2254      C2257   1.080       .  S
C2255      O3067   1.271       .  A
O2259     Mg3106   2.289   1_545  S
C2262      C2345   1.468       .  S
C2262      O2267   1.273       .  A
O2263      C2264   1.268       .  A
C2264      C2306   1.469       .  S
Mg2266     O2896   2.120       .  S
Mg2266     O3090   2.246       .  S
Mg2266     O3099   2.292       .  S
O2267     Mg2895   2.258       .  S
C2269      C2270   1.529       .  S
C2269      C2275   1.545       .  S
C2269      C2273   1.539       .  S
C2269      C2344   1.488       .  S
C2270      H2277   1.087       .  S
C2270      C2271   1.359       .  D
C2271      C2326   1.474       .  S
C2272      C2276   1.545   1_455  S
C2272      C2274   1.556       .  S
C2272      H2278   1.111   1_455  S
C2273      H2279   1.086       .  S
C2274      C2320   1.461   1_455  S
C2275      H2280   1.084       .  S
C2276      C2350   1.470       .  S
C2281      C2282   1.531       .  S
C2281      C2287   1.541       .  S
C2281      C2285   1.531       .  S
C2281      C2310   1.497       .  S
C2282      H2289   1.087       .  S
C2282      C2283   1.367       .  D
C2283      C3124   1.568       .  S
C2283      C2327   1.475       .  S
C2284      C3123   1.573   1_545  S
C2284      C2288   1.551       .  S
C2284      C2286   1.558       .  S
C2284      H2290   1.109       .  S
C2285      H2291   1.088       .  S
C2285      C3126   1.367       .  D
C2286      C3125   1.364   1_545  D
C2286      C2334   1.467       .  S
C2287      H2292   1.080       .  S
C2287      C3128   1.370       .  D
C2288      C3127   1.366   1_545  D
C2288      C2352   1.459       .  S
C2293      C2294   1.520       .  S
C2293      C2299   1.545       .  S
C2293      C2297   1.533       .  S
C2293      C2342   1.486       .  S
C2294      H2301   1.088       .  S
C2294      C2295   1.358       .  D
C2295      C2296   1.551       .  S
C2295      C2312   1.448       .  S
C2296      C2300   1.536       .  S
C2296      C2298   1.559       .  S
C2296      H2302   1.108       .  S
C2297      H2303   1.087       .  S
C2297      C2298   1.367       .  D
C2298      C2318   1.467       .  S
C2299      H2304   1.082       .  S
C2299      C2300   1.375       .  D
C2300      C2336   1.454       .  S
C2305      C2385   1.480       .  S
C2305      H2475   1.085       .  S
C2305      C2306   1.348       .  D
C2306      H2308   1.087       .  S
C2309      C2310   1.222       .  T
C2311      C2312   1.210       .  T
C2313      H2315   1.088       .  S
C2313      C2314   1.333       .  D
H2316      C2482   1.085       .  S
C2317      C2318   1.222       .  T
C2319      C2320   1.217       .  T
C2321      H2323   1.087       .  S
C2321      C2322   1.344       .  D
C2322      C2375   1.479       .  S
C2322      H2492   1.087       .  S
C2325      C2326   1.227       .  T
C2327      C2328   1.227       .  T
C2329      H2331   1.087       .  S
C2329      C2330   1.351       .  D
H2332      C2498   1.087       .  S
C2333      C2334   1.222       .  T
C2335      C2336   1.212       .  T
C2337      H2339   1.087       .  S
C2337      C2338   1.336       .  D
C2338      H2340   1.087       .  S
C2341      C2342   1.217       .  T
C2343      C2344   1.218       .  T
C2345      H2347   1.086       .  S
C2345      C2346   1.338       .  D
H2348      C2514   1.087       .  S
C2349      C2350   1.223       .  T
C2351      C2352   1.217       .  T
C2353      N2354   1.346       .  A
C2353      N2358   1.378       .  A
C2353      C2519   1.452       .  S
C2355      N2356   1.359       .  A
C2355      C2514   1.477       .  S
N2356      C2357   1.363       .  A
C2357      C2517   1.449       .  S
C2359      N2360   1.364       .  A
C2359      N2364   1.349   1_554  A
C2359      C2511   1.439       .  S
C2361      N2362   1.353       .  A
C2361      C2509   1.444       .  S
C2363      N2364   1.352       .  A
C2363      C2506   1.467       .  S
C2365      N2366   1.374       .  A
C2365      N2370   1.362       .  A
C2365      C2501   1.456       .  S
C2367      N2368   1.348       .  A
C2367      C2503   1.447       .  S
C2369      N2370   1.359       .  A
C2369      C2497   1.461       .  S
C2371      N2376   1.352       .  A
C2371      C2496   1.463       .  S
N2372      C2373   1.378       .  A
C2373      N2374   1.358       .  A
C2373      C2493   1.463       .  S
N2374      C2375   1.356       .  A
C2377      N2378   1.374       .  A
C2377      N2382   1.343       .  A
C2377      C2487   1.451       .  S
C2379      N2380   1.360       .  A
C2379      C2485   1.452       .  S
C2381      N2382   1.345       .  A
C2383      N2384   1.370       .  A
C2383      N2388   1.370       .  A
C2383      C2477   1.459       .  S
N2384      C2385   1.365       .  A
N2386      C2387   1.352       .  A
C2387      C2479   1.446       .  S
O2389     Mg3231   2.142       .  S
C2390      O2403   1.236       .  S
C2390      O2427   1.270   1_545  A
C2390      H2429   1.081       .  S
Mg2391     O3229   2.166       .  S
Mg2391     O2603   2.308       .  S
Mg2391     O2431   2.343       .  S
Mg2391     O2402   2.357       .  S
O2392     Mg2602   2.144       .  S
O2392     Mg2417   2.130   1_565  S
O2392      C3253   1.233       .  S
O2393      C2424   1.274       .  A
O2393     Mg2417   2.314       .  S
C2394      C2482   1.473       .  S
C2394      O2396   1.267       .  A
C2394      O2408   1.265       .  A
O2395      C3263   1.262   1_445  A
O2396     Mg2428   2.276       .  S
Mg2397     O2403   2.128       .  S
C2398      C2489   1.462       .  S
C2398      O2436   1.269       .  A
C2398      O2404   1.265       .  A
O2399      C2406   1.265       .  A
H2400      C2413   1.081       .  S
C2401      O2415   1.228       .  S
C2401      H2426   1.063       .  S
O2402      C2425   1.282       .  A
C2405      C2498   1.465       .  S
C2405      O2418   1.264   1_545  A
C2405      O2410   1.282       .  A
C2406      C2505   1.460       .  S
C2406      O2433   1.268       .  A
Mg2407     O2409   2.309       .  S
Mg2407     O2436   2.285       .  S
O2409      C2413   1.272       .  A
O2411      C2430   1.271       .  A
O2412      C2432   1.255       .  A
C2413      O3232   1.230       .  S
O2414      C2425   1.236       .  S
O2415     Mg2434   2.119       .  S
O2416     Mg2428   2.224       .  S
Mg2417     O2433   2.254       .  S
O2418     Mg3274   2.216       .  S
H2419      C2424   1.077       .  S
O2420     Mg2428   2.124       .  S
O2420      C2423   1.232       .  S
H2421      C2423   1.082       .  S
H2422      C2425   1.077       .  S
C2423      O3235   1.271       .  A
O2427     Mg3274   2.295       .  S
C2430      C2513   1.486   1_455  S
C2430      O2435   1.268   1_455  A
O2431      C2432   1.272       .  A
C2432      C2474   1.470       .  S
Mg2434     O3064   2.101       .  S
Mg2434     O3258   2.206       .  S
Mg2434     O3267   2.301       .  S
O2435     Mg3063   2.251       .  S
C2437      C2438   1.530   1_554  S
C2437      C2443   1.541   1_554  S
C2437      C2441   1.530       .  S
C2437      C2512   1.476       .  S
C2438      H2445   1.087       .  S
C2438      C2439   1.361       .  D
C2439      C2494   1.469       .  S
C2440      C2444   1.537       .  S
C2440      C2442   1.563   1_556  S
C2440      H2446   1.111   1_455  S
C2441      H2447   1.086       .  S
C2442      C2488   1.464   1_455  S
C2443      H2448   1.086       .  S
C2444      C2518   1.454   1_455  S
C2449      C2450   1.533       .  S
C2449      C2455   1.540       .  S
C2449      C2453   1.529       .  S
C2449      C2478   1.492       .  S
C2450      H2457   1.086       .  S
C2450      C2451   1.368       .  D
C2451      C3292   1.563       .  S
C2451      C2495   1.471   1_556  S
C2452      C3291   1.560       .  S
C2452      C2456   1.546       .  S
C2452      C2454   1.555   1_565  S
C2452      H2458   1.111   1_565  S
C2453      H2459   1.088       .  S
C2453      C3294   1.363       .  D
C2454      C3293   1.364   1_545  D
C2454      C2502   1.461       .  S
C2455      H2460   1.084       .  S
C2455      C3296   1.372       .  D
C2456      C3295   1.374       .  D
C2456      C2520   1.467   1_566  S
C2461      C2462   1.519       .  S
C2461      C2467   1.540       .  S
C2461      C2465   1.533       .  S
C2461      C2510   1.478       .  S
C2462      H2469   1.088       .  S
C2462      C2463   1.359       .  D
C2463      C2464   1.556       .  S
C2463      C2480   1.450   1_556  S
C2464      C2468   1.545       .  S
C2464      C2466   1.552       .  S
C2464      H2470   1.107   1_556  S
C2465      H2471   1.085       .  S
C2465      C2466   1.365       .  D
C2466      C2486   1.460       .  S
C2467      H2472   1.086       .  S
C2467      C2468   1.374       .  D
C2468      C2504   1.458   1_556  S
C2473      C2474   1.343       .  D
C2474      H2476   1.087       .  S
C2477      C2478   1.220       .  T
C2479      C2480   1.212       .  T
C2481      H2483   1.088       .  S
C2481      C2482   1.343       .  D
C2485      C2486   1.217       .  T
C2487      C2488   1.219       .  T
C2489      H2491   1.086       .  S
C2489      C2490   1.343       .  D
C2493      C2494   1.223       .  T
C2495      C2496   1.224       .  T
C2497      H2499   1.089       .  S
C2497      C2498   1.329       .  D
C2501      C2502   1.218       .  T
C2503      C2504   1.215       .  T
C2505      H2507   1.087       .  S
C2505      C2506   1.343       .  D
C2506      H2508   1.087       .  S
C2509      C2510   1.212       .  T
C2511      C2512   1.210       .  T
C2513      H2515   1.086   1_655  S
C2513      C2514   1.349       .  D
C2517      C2518   1.214       .  T
C2519      C2520   1.220       .  T
C2521      N2522   1.350       .  A
C2521      N2526   1.369       .  A
C2521      C2687   1.455       .  S
N2522      C2691   1.351       .  A
C2523      N3194   1.346       .  A
C2523      N2524   1.361   1_556  A
C2523      C2682   1.472       .  S
N2524      C2525   1.364       .  A
C2525      N3198   1.371       .  A
C2525      C2685   1.452       .  S
N2526      C2693   1.374       .  A
C2527      N2528   1.371       .  A
C2527      N2532   1.356       .  A
C2527      C2679   1.462       .  S
N2528      C2697   1.373       .  A
C2529      N3200   1.367       .  A
C2529      N2530   1.362       .  A
C2529      C2677   1.448       .  S
N2530      C3203   1.359   1_554  A
C2531      N2698   1.356       .  A
C2531      N2532   1.359       .  A
C2531      C2674   1.477       .  S
C2533      N2534   1.375       .  A
C2533      N2538   1.360       .  A
C2533      C2669   1.452       .  S
N2534      C3207   1.371       .  A
C2535      N2702   1.372       .  A
C2535      N2536   1.352       .  A
C2535      C2671   1.450       .  S
N2536      C2705   1.352       .  A
C2537      N3208   1.343       .  A
C2537      N2538   1.354       .  A
C2537      C2665   1.464   1_554  S
C2539      N2708   1.370       .  A
C2539      N2544   1.345       .  A
C2539      C2664   1.450       .  S
N2540      C3211   1.372       .  A
N2540      C2541   1.375       .  A
C2541      N2542   1.363       .  A
C2541      C2661   1.468       .  S
N2542      C2543   1.361   1_554  A
C2543      N3216   1.357       .  A
C2543      C3330   1.486       .  S
N2544      C2711   1.347       .  A
C2545      N2546   1.384       .  A
C2545      N2550   1.339       .  A
C2545      C2655   1.457       .  S
N2546      C2715   1.387       .  A
C2547      N3218   1.381       .  A
C2547      N2548   1.359       .  A
C2547      C2653   1.465       .  S
N2548      C3221   1.354       .  A
C2549      N2716   1.354       .  A
C2549      N2550   1.337       .  A
C2549      C2817   1.449       .  S
C2551      N2552   1.360       .  A
C2551      N2556   1.370       .  A
C2551      C2645   1.449       .  S
N2552      C2553   1.356       .  A
C2553      N3226   1.356       .  A
C2553      C3313   1.476   1_554  S
N2554      C2721   1.352       .  A
N2554      C2555   1.346       .  A
C2555      N2724   1.369       .  A
C2555      C2647   1.452       .  S
N2556      C3227   1.367       .  A
C2558      O2571   1.228       .  S
C2558      O2595   1.265       .  A
C2558      H2597   1.082       .  S
Mg2559     O2756   2.105       .  S
Mg2559     O2599   2.295       .  S
Mg2559     O2570   2.353       .  S
O2560     Mg2585   2.165       .  S
O2561      C2592   1.270       .  A
O2561     Mg2585   2.316       .  S
C2562      C2650   1.475       .  S
C2562      O2564   1.267       .  A
C2562      O2576   1.269       .  A
O2564     Mg2596   2.272       .  S
Mg2565     O2571   2.164       .  S
Mg2565     O3239   2.252       .  S
C2566      C2657   1.475       .  S
C2566      O2604   1.264       .  A
C2566      O2572   1.269       .  A
O2567      C2574   1.257       .  A
O2567     Mg2733   2.251       .  S
H2568      C2581   1.081       .  S
C2569      O2583   1.225       .  S
C2569      H2594   1.059       .  S
O2570      C2593   1.280       .  A
O2571     Mg3257   2.149       .  S
O2572     Mg2770   2.277       .  S
C2573      C2666   1.461       .  S
C2573      O2586   1.267       .  A
C2573      O2578   1.280       .  A
C2574      C2673   1.466       .  S
C2574      O2601   1.270       .  A
Mg2575     O2751   2.148       .  S
Mg2575     O2577   2.315       .  S
Mg2575     O2604   2.269       .  S
O2577      C2581   1.274       .  A
O2578     Mg3257   2.325       .  S
O2579      C2598   1.270       .  A
O2580      C2600   1.262       .  A
O2580     Mg2764   2.272       .  S
O2582     Mg2764   2.155       .  S
O2582      C2593   1.235       .  S
O2583     Mg3247   2.104       .  S
O2583     Mg2602   2.140       .  S
O2584     Mg2596   2.232       .  S
Mg2585     O2739   2.115       .  S
Mg2585     O2746   2.264       .  S
Mg2585     O2601   2.314       .  S
H2587      C2592   1.067       .  S
O2588     Mg3231   2.078       .  S
O2588     Mg2596   2.133   1_545  S
O2588      C2591   1.233       .  S
H2589      C2591   1.082       .  S
H2590      C2593   1.078       .  S
Mg2596     O3254   2.146       .  S
Mg2596     O3252   2.215       .  S
C2598      C2681   1.474       .  S
C2598      O2603   1.278       .  A
O2599      C2600   1.264       .  A
C2600      C2642   1.468       .  S
Mg2602     O3244   2.259       .  S
C2605      C2606   1.532       .  S
C2605      C2611   1.542       .  S
C2605      C2609   1.546       .  S
C2605      C2680   1.497       .  S
C2606      H2613   1.087       .  S
C2606      C2607   1.362       .  D
C2607      C2662   1.473       .  S
C2608      C2612   1.540       .  S
C2608      C2610   1.568       .  S
C2608      H2614   1.111   1_455  S
C2609      H2615   1.086       .  S
C2610      C2656   1.477   1_455  S
C2611      H2616   1.085       .  S
C2612      C2686   1.458   1_455  S
C2617      C2618   1.528       .  S
C2617      C2623   1.535       .  S
C2617      C2621   1.533       .  S
C2617      C2646   1.483       .  S
C2618      H2625   1.087       .  S
C2618      C2619   1.366       .  D
C2619      C2663   1.461       .  S
C2620      C2624   1.552       .  S
C2620      C2622   1.552       .  S
C2620      H2626   1.104       .  S
C2621      H2627   1.087       .  S
C2622      C2670   1.459       .  S
C2623      H2628   1.086       .  S
C2624      C2688   1.464       .  S
C2629      C2630   1.522       .  S
C2629      C2635   1.540       .  S
C2629      C2633   1.528       .  S
C2629      C2678   1.480       .  S
C2630      H2637   1.088       .  S
C2630      C2631   1.361       .  D
C2631      C2632   1.564       .  S
C2631      C2648   1.459       .  S
C2632      C2636   1.547       .  S
C2632      C2634   1.564       .  S
C2632      H2638   1.110       .  S
C2633      H2639   1.083       .  S
C2633      C2634   1.363       .  D
C2634      C2654   1.471       .  S
C2635      H2640   1.086       .  S
C2635      C2636   1.373       .  D
C2636      C2672   1.460       .  S
C2641      C2721   1.482       .  S
C2641      H2811   1.086       .  S
C2641      C2642   1.349       .  D
C2642      H2644   1.087       .  S
H2643      C3313   1.086       .  S
C2645      C2646   1.214       .  T
C2647      C2648   1.218       .  T
C2649      C3221   1.460   1_556  S
C2649      H2651   1.088       .  S
C2649      C2650   1.342       .  D
C2650      H3324   1.086       .  S
H2652      C2818   1.087       .  S
C2653      C2654   1.225       .  T
C2655      C2656   1.226       .  T
C2657      H2659   1.087       .  S
C2657      C2658   1.337       .  D
C2658      C2711   1.466       .  S
C2658      H2828   1.088       .  S
H2660      C3330   1.087       .  S
C2661      C2662   1.225       .  T
C2663      C2664   1.217       .  T
C2665      H2667   1.087   1_556  S
C2665      C2666   1.351       .  D
C2666      H3340   1.087       .  S
H2668      C2834   1.087       .  S
C2669      C2670   1.217       .  T
C2671      C2672   1.217       .  T
C2673      H2675   1.087       .  S
C2673      C2674   1.342       .  D
C2674      H2676   1.087       .  S
C2677      C2678   1.213       .  T
C2679      C2680   1.223       .  T
C2681      H2683   1.084       .  S
C2681      C2682   1.337       .  D
C2682      H3356   1.088       .  S
H2684      C2850   1.088       .  S
C2685      C2686   1.216       .  T
C2687      C2688   1.219       .  T
C2689      N2690   1.350       .  A
C2689      N2694   1.373       .  A
C2689      C2855   1.449       .  S
N2690      C2859   1.347       .  A
C2691      N2692   1.359       .  A
C2691      C2850   1.470       .  S
N2692      C2693   1.362       .  A
C2693      C2853   1.457       .  S
N2694      C2861   1.375       .  A
C2695      N2696   1.364       .  A
C2695      N2700   1.343       .  A
C2695      C2847   1.435       .  S
N2696      C2865   1.369       .  A
C2697      N2698   1.357       .  A
C2697      C2845   1.457       .  S
C2699      N2866   1.360       .  A
C2699      N2700   1.347       .  A
C2699      C2842   1.471       .  S
C2701      N2702   1.373       .  A
C2701      N2706   1.353       .  A
C2701      C2837   1.446       .  S
C2703      N2870   1.372       .  A
C2703      N2704   1.345       .  A
C2703      C2839   1.444       .  S
N2704      C2873   1.345       .  A
C2705      N2706   1.349       .  A
C2705      C2833   1.466       .  S
C2707      N2876   1.375       .  A
C2707      N2712   1.351       .  A
C2707      C2832   1.465       .  S
N2708      C2709   1.376       .  A
C2709      N2710   1.364       .  A
C2709      C2829   1.463       .  S
N2710      C2711   1.361       .  A
N2712      C2879   1.355       .  A
C2713      N2714   1.373       .  A
C2713      N2718   1.342       .  A
C2713      C2823   1.441       .  S
N2714      C2883   1.376       .  A
C2715      N2716   1.358       .  A
C2715      C2821   1.472       .  S
C2717      N2884   1.357       .  A
C2717      N2718   1.341       .  A
C2717      C2985   1.459       .  S
C2719      N2720   1.367       .  A
C2719      N2724   1.374       .  A
C2719      C2813   1.462       .  S
N2720      C2721   1.361       .  A
N2722      C2889   1.353       .  A
N2722      C2723   1.348       .  A
C2723      N2892   1.373       .  A
C2723      C2815   1.457       .  S
C2726      O2739   1.234       .  S
C2726      O2763   1.267       .  A
C2726      H2765   1.081       .  S
Mg2727     O2924   2.118   1_545  S
Mg2727     O2767   2.325   1_545  S
Mg2727     O2738   2.352   1_545  S
O2728     Mg2753   2.106       .  S
O2729      C2760   1.264       .  A
O2729     Mg2753   2.208       .  S
C2730      C2818   1.461       .  S
C2730      O2732   1.260       .  A
C2730      O2744   1.278       .  A
O2732     Mg2764   2.202       .  S
Mg2733     O2739   2.136       .  S
C2734      C2825   1.464       .  S
C2734      O2772   1.265       .  A
C2734      O2740   1.254       .  A
O2735      C2742   1.277       .  A
O2735     Mg2901   2.313       .  S
H2736      C2749   1.078       .  S
C2737      O2751   1.234       .  S
C2737      H2762   1.061       .  S
O2738      C2761   1.281       .  A
O2740     Mg2938   2.221       .  S
C2741      C2834   1.456       .  S
C2741      O2754   1.271       .  A
C2741      O2746   1.270       .  A
C2742      C2841   1.464       .  S
C2742      O2769   1.269       .  A
Mg2743     O2919   2.148       .  S
Mg2743     O2745   2.344       .  S
Mg2743     O2772   2.304       .  S
O2745      C2749   1.279       .  A
O2747      C2766   1.268   1_455  A
O2748      C2768   1.252       .  A
O2748     Mg2932   2.235       .  S
O2750     Mg2932   2.118       .  S
O2750      C2761   1.238       .  S
O2751     Mg2770   2.138       .  S
O2752     Mg2764   2.304       .  S
Mg2753     O2907   2.163       .  S
Mg2753     O2914   2.313       .  S
Mg2753     O2769   2.230       .  S
H2755      C2760   1.079       .  S
O2756     Mg2764   2.109       .  S
O2756      C2759   1.232       .  S
H2757      C2759   1.066       .  S
H2758      C2761   1.081       .  S
C2766      C2849   1.476       .  S
C2766      O2771   1.272       .  A
O2767      C2768   1.266       .  A
C2768      C2810   1.461       .  S
C2773      C2774   1.525       .  S
C2773      C2779   1.549       .  S
C2773      C2777   1.523       .  S
C2773      C2848   1.475       .  S
C2774      H2781   1.088       .  S
C2774      C2775   1.358       .  D
C2775      C2830   1.468       .  S
C2776      C2780   1.538       .  S
C2776      C2778   1.560       .  S
C2776      H2782   1.111   1_455  S
C2777      H2783   1.087       .  S
C2778      C2824   1.456   1_455  S
C2779      H2784   1.086       .  S
C2780      C2854   1.463   1_455  S
C2785      C2786   1.535       .  S
C2785      C2791   1.543       .  S
C2785      C2789   1.528       .  S
C2785      C2814   1.494       .  S
C2786      H2793   1.086       .  S
C2786      C2787   1.369       .  D
C2787      C2831   1.473       .  S
C2788      C2792   1.541       .  S
C2788      C2790   1.546       .  S
C2788      H2794   1.108       .  S
C2789      H2795   1.087       .  S
C2790      C2838   1.456       .  S
C2791      H2796   1.081       .  S
C2792      C2856   1.461       .  S
C2797      C2798   1.521       .  S
C2797      C2803   1.545       .  S
C2797      C2801   1.538       .  S
C2797      C2846   1.491       .  S
C2798      H2805   1.088       .  S
C2798      C2799   1.358       .  D
C2799      C2800   1.565       .  S
C2799      C2816   1.464       .  S
C2800      C2804   1.541       .  S
C2800      C2802   1.564       .  S
C2800      H2806   1.107       .  S
C2801      H2807   1.087       .  S
C2801      C2802   1.370       .  D
C2802      C2822   1.481       .  S
C2803      H2808   1.086       .  S
C2803      C2804   1.376       .  D
C2804      C2840   1.459       .  S
C2809      C2889   1.475       .  S
C2809      H2979   1.086       .  S
C2809      C2810   1.341       .  D
C2810      H2812   1.087       .  S
C2813      C2814   1.221       .  T
C2815      C2816   1.221       .  T
C2817      H2819   1.088       .  S
C2817      C2818   1.330       .  D
H2820      C2986   1.087       .  S
C2821      C2822   1.230       .  T
C2823      C2824   1.214       .  T
C2825      H2827   1.087       .  S
C2825      C2826   1.342       .  D
C2826      C2879   1.475       .  S
C2826      H2996   1.087       .  S
C2829      C2830   1.223       .  T
C2831      C2832   1.225       .  T
C2833      H2835   1.087       .  S
C2833      C2834   1.339       .  D
H2836      C3002   1.087       .  S
C2837      C2838   1.214       .  T
C2839      C2840   1.215       .  T
C2841      H2843   1.087       .  S
C2841      C2842   1.354       .  D
C2842      H2844   1.087       .  S
C2845      C2846   1.219       .  T
C2847      C2848   1.209       .  T
C2849      H2851   1.086       .  S
C2849      C2850   1.341       .  D
H2852      C3018   1.088       .  S
C2853      C2854   1.219       .  T
C2855      C2856   1.217       .  T
C2857      N2858   1.348       .  A
C2857      N2862   1.368       .  A
C2857      C3023   1.447       .  S
N2858      C3027   1.348       .  A
C2859      N2860   1.352       .  A
C2859      C3018   1.461       .  S
N2860      C2861   1.354       .  A
C2861      C3021   1.449       .  S
N2862      C3029   1.372       .  A
C2863      N2864   1.368       .  A
C2863      N2868   1.354       .  A
C2863      C3015   1.452       .  S
N2864      C3033   1.370       .  A
C2865      N2866   1.364       .  A
C2865      C3013   1.450       .  S
C2867      N3034   1.353       .  A
C2867      N2868   1.357       .  A
C2867      C3010   1.473       .  S
C2869      N2870   1.375       .  A
C2869      N2874   1.357       .  A
C2869      C3005   1.453       .  S
C2871      N3038   1.373       .  A
C2871      N2872   1.351       .  A
C2871      C3007   1.453       .  S
N2872      C3041   1.352       .  A
C2873      N2874   1.353       .  A
C2873      C3001   1.462       .  S
C2875      N3044   1.371       .  A
C2875      N2880   1.354       .  A
C2875      C3000   1.462       .  S
N2876      C2877   1.378       .  A
C2877      N2878   1.357       .  A
C2877      C2997   1.462       .  S
N2878      C2879   1.355       .  A
N2880      C3047   1.358       .  A
C2881      N2882   1.376       .  A
C2881      N2886   1.345       .  A
C2881      C2991   1.455       .  S
N2882      C3051   1.380       .  A
C2883      N2884   1.361       .  A
C2883      C2989   1.459       .  S
C2885      N3052   1.357       .  A
C2885      N2886   1.345       .  A
C2885      C3153   1.462       .  S
C2887      N2888   1.362       .  A
C2887      N2892   1.376       .  A
C2887      C2981   1.462       .  S
N2888      C2889   1.356       .  A
N2890      C3057   1.358       .  A
N2890      C2891   1.354       .  A
C2891      N3060   1.368       .  A
C2891      C2983   1.455       .  S
C2894      O2907   1.232       .  S
C2894      O2931   1.269       .  A
C2894      H2933   1.081       .  S
Mg2895     O3092   2.083       .  S
Mg2895     O2935   2.345       .  S
Mg2895     O2906   2.353   1_545  S
O2896     Mg2921   2.144       .  S
O2897      C2928   1.270       .  A
O2897     Mg2921   2.291       .  S
C2898      C2986   1.467       .  S
C2898      O2900   1.264       .  A
C2898      O2912   1.279       .  A
O2900     Mg2932   2.221       .  S
Mg2901     O2907   2.238       .  S
C2902      C2993   1.478       .  S
C2902      O2940   1.267       .  A
C2902      O2908   1.263       .  A
O2903      C2910   1.264       .  A
O2903     Mg3069   2.277       .  S
H2904      C2917   1.072       .  S
C2905      O2919   1.230       .  S
C2905      H2930   1.081       .  S
O2906      C2929   1.281       .  A
O2908     Mg3106   2.270       .  S
C2909      C3002   1.460       .  S
C2909      O2922   1.264       .  A
C2909      O2914   1.275       .  A
C2910      C3009   1.463       .  S
C2910      O2937   1.271       .  A
Mg2911     O3087   2.119       .  S
Mg2911     O2913   2.297       .  S
Mg2911     O2940   2.308       .  S
O2913      C2917   1.272       .  A
O2915      C2934   1.271       .  A
O2916      C2936   1.248       .  A
O2916     Mg3100   2.219       .  S
O2918     Mg3100   2.126       .  S
O2918      C2929   1.238       .  S
O2919     Mg2938   2.145       .  S
O2920     Mg2932   2.308       .  S
Mg2921     O3075   2.141       .  S
Mg2921     O3082   2.269       .  S
Mg2921     O2937   2.286       .  S
H2923      C2928   1.057       .  S
O2924     Mg2932   2.126       .  S
O2924      C2927   1.230   1_565  S
H2925      C2927   1.067   1_565  S
H2926      C2929   1.081       .  S
C2934      C3017   1.467       .  S
C2934      O2939   1.271       .  A
O2935      C2936   1.269   1_545  A
C2936      C2978   1.461       .  S
C2941      C2942   1.524       .  S
C2941      C2947   1.543       .  S
C2941      C2945   1.540       .  S
C2941      C3016   1.487       .  S
C2942      H2949   1.088       .  S
C2942      C2943   1.357       .  D
C2943      C2998   1.467       .  S
C2944      C2948   1.540   1_455  S
C2944      C2946   1.555       .  S
C2944      H2950   1.111   1_455  S
C2945      H2951   1.086       .  S
C2946      C2992   1.468   1_455  S
C2947      H2952   1.081       .  S
C2948      C3022   1.458       .  S
C2953      C2954   1.529       .  S
C2953      C2959   1.544       .  S
C2953      C2957   1.531       .  S
C2953      C2982   1.495       .  S
C2954      H2961   1.087       .  S
C2954      C2955   1.365       .  D
C2955      C2999   1.468       .  S
C2956      C2960   1.541       .  S
C2956      C2958   1.552       .  S
C2956      H2962   1.110       .  S
C2957      H2963   1.087       .  S
C2958      C3006   1.461       .  S
C2959      H2964   1.079       .  S
C2960      C3024   1.458       .  S
C2965      C2966   1.524       .  S
C2965      C2971   1.541       .  S
C2965      C2969   1.534       .  S
C2965      C3014   1.483       .  S
C2966      H2973   1.088       .  S
C2966      C2967   1.359       .  D
C2967      C2968   1.559       .  S
C2967      C2984   1.459       .  S
C2968      C2972   1.547       .  S
C2968      C2970   1.556       .  S
C2968      H2974   1.103       .  S
C2969      H2975   1.086       .  S
C2969      C2970   1.366       .  D
C2970      C2990   1.466       .  S
C2971      H2976   1.086       .  S
C2971      C2972   1.373       .  D
C2972      C3008   1.464       .  S
C2977      C3057   1.476       .  S
C2977      H3147   1.086       .  S
C2977      C2978   1.337       .  D
C2978      H2980   1.086       .  S
C2981      C2982   1.222       .  T
C2983      C2984   1.218       .  T
C2985      H2987   1.088       .  S
C2985      C2986   1.332       .  D
H2988      C3154   1.086       .  S
C2989      C2990   1.221       .  T
C2991      C2992   1.221       .  T
C2993      H2995   1.087       .  S
C2993      C2994   1.350       .  D
C2994      C3047   1.488       .  S
C2994      H3164   1.087       .  S
C2997      C2998   1.222       .  T
C2999      C3000   1.223       .  T
C3001      H3003   1.087       .  S
C3001      C3002   1.348       .  D
H3004      C3170   1.087       .  S
C3005      C3006   1.218       .  T
C3007      C3008   1.219       .  T
C3009      H3011   1.087       .  S
C3009      C3010   1.341       .  D
C3010      H3012   1.087       .  S
C3013      C3014   1.215       .  T
C3015      C3016   1.217       .  T
C3017      H3019   1.086       .  S
C3017      C3018   1.340       .  D
H3020      C3186   1.088       .  S
C3021      C3022   1.215       .  T
C3023      C3024   1.215       .  T
C3025      N3026   1.353       .  A
C3025      N3030   1.371       .  A
C3025      C3191   1.456       .  S
N3026      C3195   1.354       .  A
C3027      N3028   1.361       .  A
C3027      C3186   1.469       .  S
N3028      C3029   1.363       .  A
C3029      C3189   1.457       .  S
N3030      C3197   1.374       .  A
C3031      N3032   1.369       .  A
C3031      N3036   1.345       .  A
C3031      C3183   1.446       .  S
N3032      C3201   1.374       .  A
C3033      N3034   1.356       .  A
C3033      C3181   1.447       .  S
C3035      N3202   1.361       .  A
C3035      N3036   1.349       .  A
C3035      C3178   1.476       .  S
C3037      N3038   1.375       .  A
C3037      N3042   1.354       .  A
C3037      C3173   1.450       .  S
C3039      N3206   1.374       .  A
C3039      N3040   1.346       .  A
C3039      C3175   1.446       .  S
N3040      C3209   1.346       .  A
C3041      N3042   1.349       .  A
C3041      C3169   1.468       .  S
C3043      N3212   1.377       .  A
C3043      N3048   1.352       .  A
C3043      C3168   1.469       .  S
N3044      C3045   1.373       .  A
C3045      N3046   1.364       .  A
C3045      C3165   1.469       .  S
N3046      C3047   1.362       .  A
N3048      C3215   1.356       .  A
C3049      N3050   1.381       .  A
C3049      N3054   1.341       .  A
C3049      C3159   1.461       .  S
N3050      C3219   1.385       .  A
C3051      N3052   1.362       .  A
C3051      C3157   1.467       .  S
C3053      N3220   1.344       .  A
C3053      N3054   1.347       .  A
C3053      C3321   1.456       .  S
C3055      N3056   1.358       .  A
C3055      N3060   1.370       .  A
C3055      C3149   1.448       .  S
N3056      C3057   1.353       .  A
N3058      C3225   1.349       .  A
N3058      C3059   1.343       .  A
C3059      N3228   1.369       .  A
C3059      C3151   1.448       .  S
C3062      O3075   1.235       .  S
C3062      O3099   1.268       .  A
C3062      H3101   1.081       .  S
Mg3063     O3260   2.109   1_545  S
Mg3063     O3103   2.298   1_545  S
Mg3063     O3074   2.332   1_545  S
O3064     Mg3089   2.099       .  S
O3065      C3096   1.266       .  A
O3065     Mg3089   2.213       .  S
C3066      C3154   1.475       .  S
C3066      O3068   1.266       .  A
C3066      O3080   1.270       .  A
O3068     Mg3100   2.264       .  S
Mg3069     O3075   2.151       .  S
C3070      C3161   1.464       .  S
C3070      O3108   1.265       .  A
C3070      O3076   1.248       .  A
O3071      C3078   1.271       .  A
O3071     Mg3237   2.267       .  S
H3072      C3085   1.081       .  S
C3073      O3087   1.232       .  S
C3073      H3098   1.062       .  S
O3074      C3097   1.276       .  A
O3076     Mg3274   2.207       .  S
C3077      C3170   1.460       .  S
C3077      O3090   1.271       .  A
C3077      O3082   1.271       .  A
C3078      C3177   1.468       .  S
C3078      O3105   1.268       .  A
Mg3079     O3255   2.140       .  S
Mg3079     O3081   2.340       .  S
Mg3079     O3108   2.323       .  S
O3081      C3085   1.278       .  A
O3083      C3102   1.268   1_455  A
O3084      C3104   1.268       .  A
O3084     Mg3268   2.283       .  S
O3086     Mg3268   2.155       .  S
O3086      C3097   1.230       .  S
O3087     Mg3106   2.120       .  S
O3088     Mg3100   2.228       .  S
Mg3089     O3243   2.199       .  S
Mg3089     O3250   2.297       .  S
Mg3089     O3105   2.277       .  S
H3091      C3096   1.079       .  S
O3092     Mg3100   2.123   1_545  S
O3092      C3095   1.235       .  S
H3093      C3095   1.081       .  S
H3094      C3097   1.080       .  S
C3102      C3185   1.469       .  S
C3102      O3107   1.274       .  A
O3103      C3104   1.268       .  A
C3104      C3146   1.471       .  S
C3109      C3110   1.531       .  S
C3109      C3115   1.549       .  S
C3109      C3113   1.531       .  S
C3109      C3184   1.487       .  S
C3110      H3117   1.087       .  S
C3110      C3111   1.362       .  D
C3111      C3166   1.474       .  S
C3112      C3116   1.539       .  S
C3112      C3114   1.571       .  S
C3112      H3118   1.111       .  S
C3113      H3119   1.086       .  S
C3114      C3160   1.476       .  S
C3115      H3120   1.084       .  S
C3116      C3190   1.463       .  S
C3121      C3122   1.528       .  S
C3121      C3127   1.533       .  S
C3121      C3125   1.532       .  S
C3121      C3150   1.483       .  S
C3122      H3129   1.087       .  S
C3122      C3123   1.366       .  D
C3123      C3167   1.476       .  S
C3124      C3128   1.547       .  S
C3124      C3126   1.553       .  S
C3124      H3130   1.111       .  S
C3125      H3131   1.086       .  S
C3126      C3174   1.459       .  S
C3127      H3132   1.085       .  S
C3128      C3192   1.465       .  S
C3133      C3134   1.519       .  S
C3133      C3139   1.541       .  S
C3133      C3137   1.536       .  S
C3133      C3182   1.481       .  S
C3134      H3141   1.088       .  S
C3134      C3135   1.356       .  D
C3135      C3136   1.559       .  S
C3135      C3152   1.455       .  S
C3136      C3140   1.545       .  S
C3136      C3138   1.564       .  S
C3136      H3142   1.106       .  S
C3137      H3143   1.087       .  S
C3137      C3138   1.367       .  D
C3138      C3158   1.474       .  S
C3139      H3144   1.086       .  S
C3139      C3140   1.375       .  D
C3140      C3176   1.461       .  S
C3145      C3225   1.487       .  S
C3145      H3315   1.086       .  S
C3145      C3146   1.353       .  D
C3146      H3148   1.087       .  S
C3149      C3150   1.214       .  T
C3151      C3152   1.215       .  T
C3153      H3155   1.088       .  S
C3153      C3154   1.340       .  D
H3156      C3322   1.088       .  S
C3157      C3158   1.226       .  T
C3159      C3160   1.226       .  T
C3161      H3163   1.087       .  S
C3161      C3162   1.340       .  D
C3162      C3215   1.476       .  S
C3162      H3332   1.087       .  S
C3165      C3166   1.226       .  T
C3167      C3168   1.227       .  T
C3169      H3171   1.087       .  S
C3169      C3170   1.340       .  D
H3172      C3338   1.087       .  S
C3173      C3174   1.216       .  T
C3175      C3176   1.216       .  T
C3177      H3179   1.086       .  S
C3177      C3178   1.353       .  D
C3178      H3180   1.087       .  S
C3181      C3182   1.213       .  T
C3183      C3184   1.216       .  T
C3185      H3187   1.084       .  S
C3185      C3186   1.336       .  D
H3188      C3354   1.085       .  S
C3189      C3190   1.219       .  T
C3191      C3192   1.220       .  T
C3193      N3194   1.348   1_554  A
C3193      N3198   1.366       .  A
C3193      C3359   1.440       .  S
C3195      N3196   1.357       .  A
C3195      C3354   1.475       .  S
N3196      C3197   1.360       .  A
C3197      C3357   1.458       .  S
C3199      N3200   1.363       .  A
C3199      N3204   1.348   1_554  A
C3199      C3351   1.439       .  S
C3201      N3202   1.364       .  A
C3201      C3349   1.461       .  S
C3203      N3204   1.352       .  A
C3203      C3346   1.475       .  S
C3205      N3206   1.377       .  A
C3205      N3210   1.355       .  A
C3205      C3341   1.451       .  S
C3207      N3208   1.341       .  A
C3207      C3343   1.438       .  S
C3209      N3210   1.350       .  A
C3209      C3337   1.462       .  S
C3211      N3216   1.352   1_554  A
C3211      C3336   1.463       .  S
N3212      C3213   1.380       .  A
C3213      N3214   1.357       .  A
C3213      C3333   1.462       .  S
N3214      C3215   1.353       .  A
C3217      N3218   1.377       .  A
C3217      N3222   1.345       .  A
C3217      C3327   1.458       .  S
C3219      N3220   1.353       .  A
C3219      C3325   1.455       .  S
C3221      N3222   1.346       .  A
C3223      N3224   1.371       .  A
C3223      N3228   1.374       .  A
C3223      C3317   1.470       .  S
N3224      C3225   1.365       .  A
N3226      C3227   1.352       .  A
C3227      C3319   1.451       .  S
C3230      O3243   1.232       .  S
C3230      O3267   1.270       .  A
C3230      H3269   1.081       .  S
Mg3231     O3271   2.336   1_545  S
Mg3231     O3242   2.365   1_545  S
O3232     Mg3257   2.108       .  S
O3233      C3264   1.271       .  A
O3233     Mg3257   2.264       .  S
C3234      C3322   1.439       .  S
C3234      O3236   1.265       .  A
C3234      O3248   1.265       .  A
O3236     Mg3268   2.210       .  S
Mg3237     O3243   2.234       .  S
C3238      C3329   1.472       .  S
C3238      O3276   1.267       .  A
C3238      O3244   1.261       .  A
O3239      C3246   1.266       .  A
H3240      C3253   1.076       .  S
C3241      O3255   1.231       .  S
C3241      H3266   1.081       .  S
O3242      C3265   1.283       .  A
C3245      C3338   1.461       .  S
C3245      O3258   1.267       .  A
C3245      O3250   1.274       .  A
C3246      C3345   1.468       .  S
C3246      O3273   1.266       .  A
Mg3247     O3249   2.312       .  S
Mg3247     O3276   2.313       .  S
O3249      C3253   1.274       .  A
O3251      C3270   1.276       .  A
O3252      C3272   1.251       .  A
O3254      C3265   1.241       .  S
O3255     Mg3274   2.145       .  S
O3256     Mg3268   2.297       .  S
Mg3257     O3273   2.289       .  S
H3259      C3264   1.055       .  S
O3260     Mg3268   2.094       .  S
O3260      C3263   1.228       .  S
H3261      C3263   1.073       .  S
H3262      C3265   1.082       .  S
C3270      C3353   1.466       .  S
C3270      O3275   1.270       .  A
O3271      C3272   1.268       .  A
C3272      C3314   1.464       .  S
C3277      C3278   1.526       .  S
C3277      C3283   1.542       .  S
C3277      C3281   1.532   1_556  S
C3277      C3352   1.475   1_556  S
C3278      H3285   1.088       .  S
C3278      C3279   1.357       .  D
C3279      C3334   1.468       .  S
C3280      C3284   1.547       .  S
C3280      C3282   1.562   1_556  S
C3280      H3286   1.111   1_455  S
C3281      H3287   1.086       .  S
C3282      C3328   1.470   1_455  S
C3283      H3288   1.084       .  S
C3284      C3358   1.464   1_455  S
C3289      C3290   1.537       .  S
C3289      C3295   1.545       .  S
C3289      C3293   1.530       .  S
C3289      C3318   1.502       .  S
C3290      H3297   1.086       .  S
C3290      C3291   1.370       .  D
C3291      C3335   1.471       .  S
C3292      C3296   1.539       .  S
C3292      C3294   1.554       .  S
C3292      H3298   1.111   1_556  S
C3293      H3299   1.087       .  S
C3294      C3342   1.460       .  S
C3295      H3300   1.081       .  S
C3296      C3360   1.453   1_556  S
C3301      C3302   1.523       .  S
C3301      C3307   1.547       .  S
C3301      C3305   1.540       .  S
C3301      C3350   1.494       .  S
C3302      H3309   1.088       .  S
C3302      C3303   1.358       .  D
C3303      C3304   1.555       .  S
C3303      C3320   1.456   1_556  S
C3304      C3308   1.534       .  S
C3304      C3306   1.550       .  S
C3304      H3310   1.103   1_556  S
C3305      H3311   1.084       .  S
C3305      C3306   1.371       .  D
C3306      C3326   1.468       .  S
C3307      H3312   1.086       .  S
C3307      C3308   1.377       .  D
C3308      C3344   1.456   1_556  S
C3313      C3314   1.340       .  D
C3314      H3316   1.087       .  S
C3317      C3318   1.226       .  T
C3319      C3320   1.216       .  T
C3321      H3323   1.087       .  S
C3321      C3322   1.334       .  D
C3325      C3326   1.221       .  T
C3327      C3328   1.223       .  T
C3329      H3331   1.086       .  S
C3329      C3330   1.349       .  D
C3333      C3334   1.223       .  T
C3335      C3336   1.224   1_556  T
C3337      H3339   1.087       .  S
C3337      C3338   1.345       .  D
C3341      C3342   1.217       .  T
C3343      C3344   1.213       .  T
C3345      H3347   1.086       .  S
C3345      C3346   1.350       .  D
C3346      H3348   1.087       .  S
C3349      C3350   1.221       .  T
C3351      C3352   1.210       .  T
C3353      H3355   1.087       .  S
C3353      C3354   1.345       .  D
C3357      C3358   1.220       .  T
C3359      C3360   1.211       .  T
