geometry optimzed in LAMMPS
_audit_creation_date              2020-11-30 
_audit_creation_method            'lammps2cif' 
_symmetry_space_group_name_H-M    'P1' 
_symmetry_Int_Tables_number       1 
_symmetry_cell_setting            triclinic 
loop_ 
_symmetry_equiv_pos_as_xyz 
  x,y,z 
_cell_length_a                    26.40320393 
_cell_length_b                    26.940690981281314 
_cell_length_c                    42.42686658752056 
_cell_angle_alpha                 92.84805692078079 
_cell_angle_beta                  91.06059330535473 
_cell_angle_gamma                 120.45661387660849 
loop_ 
_atom_site_label 
_atom_site_type_symbol 
_atom_site_fract_x 
_atom_site_fract_y 
_atom_site_fract_z 
_atom_site_charge 
C1          C  0.07833369  0.06141353  0.13606099     0.03600
C2          C  0.11654643  0.04597443  0.15037289    -0.12600
C3          C  0.15418284  0.08081728  0.17617344     0.01100
C4          C  0.15600372  0.13319080  0.18344540    -0.11100
C5          C  0.10586260  0.13724902  0.17727522     0.03600
C6          C  0.07119290  0.10507923  0.15052612    -0.10500
H7          H  0.11649278  0.00756204  0.14152505     0.09100
H8          H  0.19529501  0.16951472  0.19417215     0.06700
H9          H  0.03855738  0.11343246  0.14062065     0.06500
C10         C  0.21343539  0.02514808  0.18267372     0.45900
H11         H  0.21004943  0.02077567  0.15651383    -0.03100
C12         C  0.21819597  0.03274592  0.24383923     0.45900
H13         H  0.21940054  0.03571105  0.27001258    -0.03100
C14         C  0.27725124  0.05441802  0.19710509    -0.16800
C15         C  0.18691651  0.06080242  0.19668890    -0.16600
C16         C  0.18182329  0.46502361  0.19580680    -0.17000
C17         C  0.27975145  0.05883593  0.23016651    -0.16900
C18         C  0.18934105  0.06453055  0.22953489    -0.16500
C19         C  0.18315887  0.96981912  0.22965134    -0.16800
C20         C  0.05573490  0.20243907  0.24593370     0.45900
H21         H  0.05824022  0.20544491  0.27217021    -0.03100
C22         C  0.05050856  0.19583284  0.18464719     0.45900
H23         H  0.04802211  0.19413531  0.15849925    -0.03100
C24         C  0.08309944  0.26207479  0.23155838    -0.16800
C25         C  0.08780025  0.17242382  0.23156736    -0.16600
C26         C  0.99193886  0.16751287  0.23178129    -0.17000
C27         C  0.08070206  0.25811473  0.19868203    -0.16900
C28         C  0.08638333  0.17037173  0.19862879    -0.16500
C29         C  0.98916008  0.16401459  0.19883931    -0.16800
C30         C  0.37613240  0.15398718  0.13666362     0.03600
C31         C  0.43081670  0.17398494  0.15342028    -0.12600
C32         C  0.43457722  0.14251347  0.17796509     0.01100
C33         C  0.38354912  0.09011921  0.18263862    -0.11100
C34         C  0.32874175  0.08444365  0.17629385     0.03600
C35         C  0.32490096  0.11164506  0.14996135    -0.10500
H36         H  0.47005098  0.21182020  0.14636507     0.09100
H37         H  0.38636989  0.05487393  0.19138775     0.06700
H38         H  0.28255444  0.09835178  0.13956951     0.03900
C39         C  0.19596039  0.35470676  0.14253249     0.03600
C40         C  0.20585868  0.40852775  0.15517106    -0.12600
C41         C  0.16646270  0.41052020  0.17633580     0.01100
C42         C  0.11474269  0.35836540  0.18035359    -0.11100
C43         C  0.11608659  0.30703936  0.17804765     0.03600
C44         C  0.15428395  0.30417937  0.15628271    -0.10500
H45         H  0.24283787  0.44803538  0.14784721     0.09100
H46         H  0.07581893  0.35829301  0.18740831     0.06700
H47         H  0.15015291  0.26308601  0.14927698     0.06500
C48         C  0.38859447  0.17383455  0.29156498     0.03600
C49         C  0.33468330  0.13059872  0.27698386    -0.12600
C50         C  0.33426292  0.09498881  0.25156276     0.01100
C51         C  0.38772602  0.09740484  0.24670301    -0.11100
C52         C  0.94005237  0.14999401  0.25239256     0.03600
C53         C  0.94084376  0.18745970  0.27692736    -0.10500
H54         H  0.29388964  0.12391053  0.28588896     0.09100
H55         H  0.38813077  0.05943211  0.23819591     0.06700
H56         H  0.98169241  0.22590074  0.28505154     0.06500
C57         C  0.19684032  0.37823357  0.29020669     0.03600
C58         C  0.20559468  0.42737795  0.27545789    -0.12600
C59         C  0.16767977  0.42139780  0.25008282     0.01100
C60         C  0.11635438  0.36731461  0.24494529    -0.11100
C61         C  0.11749794  0.31747527  0.25170272     0.03600
C62         C  0.15633822  0.32304738  0.27640189    -0.10500
H63         H  0.24094361  0.46955356  0.28410566     0.09100
H64         H  0.07717985  0.36372681  0.23455394     0.06700
H65         H  0.15514825  0.28534495  0.28506542     0.06500
C66         C  0.07303715  0.05524729  0.28410409     0.03600
C67         C  0.11583741  0.04526552  0.27087007    -0.12600
C68         C  0.15471742  0.08304561  0.24987769     0.01100
C69         C  0.15573628  0.13540152  0.24764027    -0.11100
C70         C  0.10353052  0.13649143  0.25126109     0.03600
C71         C  0.06338843  0.09773435  0.27185285    -0.10500
H72         H  0.11982833  0.00912461  0.27747546     0.09100
H73         H  0.19489121  0.17334211  0.24119355     0.06700
H74         H  0.02566815  0.10078645  0.27865782     0.06500
O75         O  0.03571142  0.35421936  0.48849983    -0.80500
O76         O  0.35810243  0.40084534  0.40972705    -0.65200
O77         O  0.46556140  0.39982231  0.46786743    -1.11800
C78         C  0.31038076  0.28732655  0.52763706     1.06400
O79         O  0.27956118  0.37657487  0.43762331    -0.78400
O80         O  0.35084974  0.42695601  0.49395422    -0.65900
Ni81       Ni  0.02780115  0.38815152  0.45001023     1.34900
C82         C  0.38931057  0.43455546  0.51532829     0.85200
O83         O  0.47204748  0.46293433  0.41848261    -0.78900
O84         O  0.03062621  0.42476154  0.41070790    -0.89200
C85         C  0.30603299  0.39016313  0.41183101     0.84700
O86         O  0.46835146  0.31431681  0.43036299    -0.67400
O87         O  0.29266348  0.32071926  0.51863878    -0.86700
C88         C  0.43108039  0.30953730  0.40908704     0.85600
C89         C  0.01104355  0.45703139  0.40199273     1.07100
H90         H  0.33346919  0.30244475  0.44703574     0.38900
O91         O  0.35183247  0.33820267  0.46008774    -1.09300
O92         O  0.40695785  0.39871299  0.51777143    -0.66000
Ni93       Ni  0.40592868  0.33915612  0.48982221     1.26300
O94         O  0.41236405  0.34484499  0.40895918    -0.66200
O95         O  0.34600144  0.27917637  0.51191302    -0.78500
C96         C  0.01516705  0.35054308  0.51598848     0.84900
O97         O  0.45992893  0.34099329  0.51897566    -0.65700
Ni98       Ni  0.29234868  0.35078170  0.47751610     1.27400
Ni99       Ni  0.41172948  0.40079077  0.43884882     1.26100
H100        H  0.48485877  0.43584163  0.48065311     0.39500
O101        O  0.40929587  0.23565478  0.98982237    -0.80500
O102        O  0.42545438  0.43097999  0.90732773    -0.65200
O103        O  0.44512266  0.34660704  0.96922711    -1.11800
C104        C  0.30284088  0.36221944  0.02363687     1.06400
O105        O  0.39531923  0.48282787  0.93464237    -0.78400
O106        O  0.43967169  0.47806139  0.99417171    -0.65900
Ni107      Ni  0.45233447  0.28147745  0.95537748     1.34900
C108        C  0.45147992  0.45447918  0.01618350     0.85200
O109        O  0.50641398  0.40580222  0.91871635    -0.78900
O110        O  0.49923836  0.32010245  0.92010085    -0.89200
C111        C  0.41247494  0.46981806  0.90935109     0.84700
O112        O  0.38254909  0.24532807  0.92833276    -0.67400
O113        O  0.32669319  0.41131433  0.01196156    -0.86700
C114        C  0.37039884  0.27010228  0.90727991     0.85600
C115        C  0.51937835  0.36905067  0.90845745     1.07100
H116        H  0.33138928  0.34916929  0.94524268     0.38900
O117        O  0.36621532  0.37477889  0.95848376    -1.09300
O118        O  0.42588316  0.40014050  0.01804895    -0.66000
Ni119      Ni  0.37674112  0.33311199  0.99036071     1.26300
O120        O  0.39096784  0.32427149  0.90832985    -0.66200
O121        O  0.30922835  0.32136394  0.01220533    -0.78500
C122        C  0.39518470  0.24861431  0.01621416     0.84900
O123        O  0.38895400  0.29185283  0.02084176    -0.65700
Ni124      Ni  0.36345439  0.44267752  0.97284167     1.27400
Ni125      Ni  0.43612457  0.38965843  0.93810907     1.26100
H126        H  0.47998147  0.37209871  0.98235464     0.39500
C127        C  0.41845417  0.06207796  0.63326977     0.03600
C128        C  0.36705009  0.04544189  0.65010477    -0.12600
C129        C  0.36851611  0.08081071  0.67607854     0.01100
C130        C  0.42126980  0.13322552  0.68219057    -0.11100
C131        C  0.47455084  0.13637743  0.67578865     0.03600
C132        C  0.47320614  0.10335306  0.64862110    -0.10500
H133        H  0.32731357  0.50368993  0.64508811     0.09100
H134        H  0.42096237  0.17037968  0.69223511     0.06700
H135        H  0.51389194  0.11027319  0.63928539     0.06500
C136        C  0.43119557  0.06439263  0.78716945     0.03600
C137        C  0.48325985  0.10487474  0.77346524    -0.12600
C138        C  0.48060331  0.13982381  0.75067709     0.01100
C139        C  0.42698828  0.13813788  0.74666883    -0.11100
C140        C  0.37457876  0.08634961  0.75040455     0.03600
C141        C  0.37655487  0.05148086  0.77327515    -0.10500
H142        H  0.02395561  0.10781599  0.78084739     0.09100
H143        H  0.42597974  0.17515251  0.73919494     0.06700
H144        H  0.33618948  0.01551777  0.78072044     0.06500
C145        C  0.25293033  0.02725175  0.68258772     0.45900
H146        H  0.25016756  0.02410836  0.65635803    -0.03100
C147        C  0.25863859  0.03440340  0.74385162     0.45900
H148        H  0.26140730  0.03726981  0.77003611    -0.03100
C149        C  0.31679972  0.06250446  0.69677030    -0.16800
C150        C  0.22091313  0.05723821  0.69684582    -0.16600
C151        C  0.22806670  0.46832298  0.69846245    -0.17000
C152        C  0.31975207  0.06638217  0.72972985    -0.16900
C153        C  0.22277396  0.05977125  0.72973370    -0.16500
C154        C  0.23120348  0.47210123  0.73137338    -0.16800
C155        C  0.09054362  0.19693308  0.68406949     0.45900
H156        H  0.08947950  0.19435621  0.65790185    -0.03100
C157        C  0.09514720  0.20340561  0.74531939     0.45900
H158        H  0.09716280  0.20599072  0.77154694    -0.03100
C159        C  0.12586056  0.25976796  0.69845509    -0.16800
C160        C  0.02896122  0.17048739  0.69770355    -0.16600
C161        C  0.11940314  0.16499533  0.69830276    -0.17000
C162        C  0.12822958  0.26340042  0.73145067    -0.16900
C163        C  0.03152787  0.17335262  0.73075009    -0.16500
C164        C  0.12207343  0.16861245  0.73112001    -0.16800
C165        C  0.11481023  0.35486731  0.63829649     0.03600
C166        C  0.15480662  0.40931185  0.65317588    -0.12600
C167        C  0.19323872  0.41343595  0.67771807     0.01100
C168        C  0.19448796  0.36299589  0.68277419    -0.11100
C169        C  0.14260915  0.30927900  0.67761218     0.03600
C170        C  0.10483621  0.30470753  0.65249004    -0.10500
H171        H  0.15629116  0.44758440  0.64520751     0.09100
H172        H  0.23440539  0.36562452  0.69121685     0.06700
H173        H  0.06835369  0.26311777  0.64379398     0.06500
C174        C  0.23373703  0.17253909  0.64319308     0.03600
C175        C  0.24493321  0.13163772  0.65625698    -0.12600
C176        C  0.20511131  0.09310902  0.67710399     0.01100
C177        C  0.15281734  0.09408979  0.68075222    -0.11100
C178        C  0.15371114  0.14632902  0.67806073     0.03600
C179        C  0.19262875  0.18404959  0.65706881    -0.10500
H180        H  0.28315530  0.12927073  0.64974346     0.09100
H181        H  0.11395347  0.05651967  0.68780295     0.06700
H182        H  0.19006364  0.22123811  0.65079888     0.06500
C183        C  0.23388338  0.17274814  0.79109234     0.03600
C184        C  0.24291157  0.13046957  0.77591286    -0.12600
C185        C  0.20536342  0.09497410  0.75067790     0.01100
C186        C  0.15429479  0.09771218  0.74525419    -0.11100
C187        C  0.15633087  0.15040676  0.75152404     0.03600
C188        C  0.19551130  0.18743061  0.77628601    -0.10500
H189        H  0.27906657  0.12546599  0.78394918     0.09100
H190        H  0.11491030  0.06080879  0.73499704     0.06700
H191        H  0.19656063  0.22692206  0.78385145     0.06500
C192        C  0.13222804  0.37435502  0.79291215     0.03600
C193        C  0.16860675  0.42482404  0.77759872    -0.12600
C194        C  0.20052374  0.42222168  0.75217185     0.01100
C195        C  0.19992090  0.37012874  0.74680052    -0.11100
C196        C  0.14901309  0.31804459  0.75236290     0.03600
C197        C  0.11642784  0.32039929  0.77761612    -0.10500
H198        H  0.17243645  0.46531851  0.78584522     0.09100
H199        H  0.23768885  0.36997357  0.73804846     0.06700
H200        H  0.08006717  0.28132880  0.78574652     0.06500
C201        C  0.27366085  0.21893743  0.87845528    -0.05300
C202        C  0.33354739  0.23652081  0.87911188     0.00600
C203        C  0.35942701  0.23301050  0.85079952    -0.08000
C204        C  0.32726807  0.22125262  0.82225226    -0.05400
C205        C  0.26688664  0.20123813  0.82134407     0.00600
C206        C  0.23859846  0.19716104  0.85010633    -0.07900
C207        C  0.17200698  0.16681243  0.85132716     0.62500
H208        H  0.25449716  0.22148088  0.90039644     0.13200
H209        H  0.34837633  0.22230225  0.80038256     0.13200
C210        C  0.41909238  0.23801900  0.84917356     0.62700
F211        F  0.15447396  0.16459812  0.88203037    -0.22500
F212        F  0.14713408  0.11074197  0.83836042    -0.19800
F213        F  0.15031025  0.19532953  0.83472066    -0.19500
F214        F  0.44081054  0.23449811  0.87822733    -0.19500
F215        F  0.45810783  0.28943428  0.83682249    -0.19800
F216        F  0.41451807  0.19319748  0.82946457    -0.22500
C217        C  0.07466953  0.40385027  0.82541167    -0.05300
C218        C  0.10901629  0.37815624  0.82367864     0.00600
C219        C  0.12307434  0.35948889  0.85139705    -0.08000
C220        C  0.09387380  0.35836687  0.87891596    -0.05400
C221        C  0.05564328  0.38020698  0.88020251     0.00600
C222        C  0.55013968  0.40862349  0.85410168    -0.07900
C223        C  0.51192977  0.43565900  0.85355623     0.62500
H224        H  0.06694979  0.42013305  0.80411963     0.13200
H225        H  0.10078650  0.34043613  0.89974661     0.13200
C226        C  0.17152244  0.34483925  0.85249919     0.62700
F227        F  0.51389601  0.46023806  0.82535599    -0.22500
F228        F  0.53107180  0.47914553  0.87735377    -0.19800
F229        F  0.45431707  0.39337150  0.85716276    -0.19500
F230        F  0.22303837  0.39107351  0.84306411    -0.19500
F231        F  0.15657523  0.29677054  0.83269793    -0.19800
F232        F  0.18215658  0.33369312  0.88267044    -0.22500
C233        C  0.38968880  0.96346582  0.85306466    -0.05300
C234        C  0.41945479  0.00266430  0.87926591     0.00600
C235        C  0.45867018  0.06134828  0.87448261    -0.08000
C236        C  0.46380817  0.07943773  0.84351036    -0.05400
C237        C  0.43324141  0.04009105  0.81737910     0.00600
C238        C  0.39819782  0.98059550  0.82207876    -0.07900
C239        C  0.37075768  0.93349507  0.79542581     0.62500
H240        H  0.35983659  0.41517606  0.85536874     0.13200
H241        H  0.49066387  0.12486019  0.83955757     0.13200
C242        C  0.49540282  0.10406379  0.90175934     0.62700
F243        F  0.38310199  0.89045166  0.80111202    -0.22500
F244        F  0.39204325  0.95346866  0.76635157    -0.19800
F245        F  0.31044638  0.90979565  0.79409457    -0.19500
F246        F  0.52887898  0.08525972  0.91688434    -0.19500
F247        F  0.44989909  0.60092378  0.92543303    -0.19800
F248        F  0.53327556  0.15832184  0.89163832    -0.22500
C249        C  0.29112113  0.26094751  0.61521995    -0.05300
C250        C  0.25997824  0.20061386  0.61398576     0.00600
C251        C  0.24418011  0.16868387  0.58427569    -0.08000
C252        C  0.26190359  0.19875896  0.55664536    -0.05400
C253        C  0.29183912  0.25919620  0.55781040     0.00600
C254        C  0.30709006  0.29100125  0.58762220    -0.07900
C255        C  0.34194917  0.35625540  0.59054162     0.62500
H256        H  0.30144253  0.28429423  0.63817474     0.13200
H257        H  0.25110808  0.17524821  0.53372938     0.13200
C258        C  0.20568238  0.10332774  0.58169315     0.62700
F259        F  0.35257467  0.37839162  0.62167886    -0.22500
F260        F  0.31146469  0.37775672  0.57502918    -0.19800
F261        F  0.39557872  0.37474928  0.57757041    -0.19500
F262        F  0.15346339  0.08705096  0.59606441    -0.19500
F263        F  0.23407649  0.07914223  0.59641805    -0.19800
F264        F  0.19249176  0.08104488  0.55059019    -0.22500
C265        C  0.45841028  0.52157246  0.59272888    -0.05300
C266        C  0.41491284  0.03596958  0.60067725     0.00600
C267        C  0.37196721  0.02778984  0.57695625    -0.08000
C268        C  0.36665957  0.49713452  0.54965281    -0.05400
C269        C  0.40694716  0.48004736  0.54150581     0.00600
C270        C  0.45723697  0.49851070  0.56205248    -0.07900
C271        C  0.51104775  0.49718565  0.55144009     0.62500
H272        H  0.49335724  0.52922828  0.60952491     0.13200
H273        H  0.32935314  0.48522553  0.53353261     0.13200
C274        C  0.33237127  0.05313784  0.58022120     0.62700
F275        F  0.50304203  0.44270784  0.55274355    -0.22500
F276        F  0.52280030  0.51484400  0.52105904    -0.19800
F277        F  0.55992306  0.53441910  0.57057742    -0.19500
F278        F  0.35927508  0.10445282  0.59883542    -0.19500
F279        F  0.28072176  0.01361590  0.59313333    -0.19800
F280        F  0.31883099  0.06516760  0.55091437    -0.22500
C281        C  0.00524686  0.31663983  0.56955830    -0.05300
C282        C  0.04309872  0.34363393  0.54488713     0.00600
C283        C  0.10473094  0.37174595  0.55114951    -0.08000
C284        C  0.12577484  0.37396385  0.58221329    -0.05400
C285        C  0.08760558  0.35080238  0.60702103     0.00600
C286        C  0.02621611  0.32180400  0.60077805    -0.07900
C287        C  0.98091755  0.29761640  0.62591650     0.62500
H288        H  0.45309455  0.29297917  0.56587635     0.13200
H289        H  0.17269013  0.39472932  0.58761524     0.13200
C290        C  0.14820286  0.40097047  0.52584460     0.62700
F291        F  0.44154321  0.32487084  0.62468758    -0.22500
F292        F  0.00508615  0.31431620  0.65645790    -0.19800
F293        F  0.95038931  0.23801336  0.62210706    -0.19500
F294        F  0.14157574  0.44479578  0.51464157    -0.19500
F295        F  0.13854891  0.36103369  0.50124733    -0.19800
F296        F  0.20588952  0.42487167  0.53730749    -0.22500
C297        C  0.05173058  0.06255875  0.33975161    -0.05300
C298        C  0.04495552  0.02650587  0.31293534     0.00600
C299        C  0.02108133  0.46494134  0.31370229    -0.08000
C300        C  0.01368256  0.44542083  0.34429681    -0.05400
C301        C  0.02641176  0.48300581  0.37124759     0.00600
C302        C  0.04136290  0.04205407  0.37017411    -0.07900
C303        C  0.04999148  0.08295245  0.39849347     0.62500
H304        H  0.06813433  0.10785710  0.33686779     0.13200
H305        H  0.99600875  0.39980918  0.34713132     0.13200
C306        C  0.00244398  0.42012825  0.28613504     0.62700
F307        F  0.06988577  0.13857137  0.38990047    -0.22500
F308        F  0.09096125  0.08474127  0.42002111    -0.19800
F309        F  0.99739715  0.06466181  0.41285195    -0.19500
F310        F  0.03945731  0.39786151  0.28583770    -0.19500
F311        F  0.00287412  0.44191116  0.25724045    -0.19800
F312        F  0.94581217  0.37573720  0.28980771    -0.22500
C313        C  0.19177351  0.36976050  0.34748941    -0.05300
C314        C  0.22634097  0.38422263  0.32102189     0.00600
C315        C  0.28669131  0.40348286  0.32444898    -0.08000
C316        C  0.31078914  0.40785320  0.35484505    -0.05400
C317        C  0.27631092  0.39165741  0.38181237     0.00600
C318        C  0.21536370  0.37277804  0.37802279    -0.07900
C319        C  0.17457651  0.35474930  0.40535955     0.62500
H320        H  0.14544958  0.35513753  0.34378287     0.13200
H321        H  0.35726471  0.42274848  0.35734456     0.13200
C322        C  0.32482040  0.41663526  0.29602101     0.62700
F323        F  0.11853540  0.34224062  0.39611455    -0.22500
F324        F  0.19609766  0.39901699  0.42885722    -0.19800
F325        F  0.16982265  0.30577140  0.41730918    -0.19500
F326        F  0.32891162  0.46321161  0.28153553    -0.19500
F327        F  0.30043476  0.36910359  0.27450315    -0.19800
F328        F  0.38140072  0.42992034  0.30450606    -0.22500
C329        C  0.41614067  0.19190576  0.34852795    -0.05300
C330        C  0.39083173  0.20303971  0.32241741     0.00600
C331        C  0.37092313  0.24255434  0.32615753    -0.08000
C332        C  0.38305809  0.27435858  0.35533100    -0.05400
C333        C  0.41249509  0.26668528  0.38119385     0.00600
C334        C  0.42586056  0.22181991  0.37826714    -0.07900
C335        C  0.44951287  0.20461194  0.40597445     0.62500
H336        H  0.42919381  0.15987124  0.34521669     0.13200
H337        H  0.37030079  0.30664529  0.35771105     0.13200
C338        C  0.33791968  0.25204578  0.29955124     0.62700
F339        F  0.44721767  0.15267544  0.39913985    -0.22500
F340        F  0.41606520  0.19798911  0.43187907    -0.19800
F341        F  0.00924279  0.24750443  0.41274427    -0.19500
F342        F  0.28244098  0.20407973  0.29422794    -0.19500
F343        F  0.36808388  0.26207831  0.27208137    -0.19800
F344        F  0.33083062  0.29869110  0.30687131    -0.22500
C345        C  0.28977576  0.33837471  0.07993995    -0.05300
C346        C  0.27090842  0.35478002  0.05313148     0.00600
C347        C  0.22594700  0.36852648  0.05587938    -0.08000
C348        C  0.20185319  0.36596096  0.08542140    -0.05400
C349        C  0.22197767  0.35157794  0.11235272     0.00600
C350        C  0.26649639  0.33733326  0.10984257    -0.07900
C351        C  0.29101546  0.32402434  0.13885098     0.62500
H352        H  0.32476242  0.32876978  0.07755648     0.13200
H353        H  0.16788618  0.37697237  0.08800758     0.13200
C354        C  0.20401467  0.38695193  0.02799603     0.62700
F355        F  0.33849901  0.31755110  0.13196157    -0.22500
F356        F  0.24815355  0.27358106  0.15065709    -0.19800
F357        F  0.30966511  0.36850756  0.16203591    -0.19500
F358        F  0.19283964  0.34977402  0.00168694    -0.19500
F359        F  0.24604293  0.44238249  0.02144610    -0.19800
F360        F  0.15247276  0.38654538  0.03414651    -0.22500
C361        C  0.41674834  0.17407586  0.08387185    -0.05300
C362        C  0.37441435  0.17252435  0.10429552     0.00600
C363        C  0.33241298  0.18646451  0.09257530    -0.08000
C364        C  0.33855561  0.20626274  0.06219627    -0.05400
C365        C  0.38413536  0.21281275  0.04325861     0.00600
C366        C  0.42210953  0.19352841  0.05332549    -0.07900
C367        C  0.46840504  0.19421452  0.03232062     0.62500
H368        H  0.44613687  0.15995668  0.09216366     0.13200
H369        H  0.30812154  0.21848449  0.05302070     0.13200
C370        C  0.28066319  0.18106627  0.11057086     0.62700
F371        F  0.00200704  0.17417545  0.04803860    -0.22500
F372        F  0.00805388  0.25004822  0.02522916    -0.19800
F373        F  0.44113594  0.15865231  0.00527129    -0.19500
F374        F  0.29611941  0.19769830  0.14228290    -0.19500
F375        F  0.23416592  0.12486436  0.10677306    -0.19800
F376        F  0.26059944  0.21535728  0.09889113    -0.22500
C377        C  0.07841237  0.04580870  0.07852671    -0.05300
C378        C  0.04608044  0.03371539  0.10584807     0.00600
C379        C  0.98403032  0.00108647  0.10350357    -0.08000
C380        C  0.45583795  0.48711180  0.07064386    -0.05400
C381        C  0.98794117  0.49044090  0.04367960     0.00600
C382        C  0.05028671  0.02522146  0.04833354    -0.07900
C383        C  0.08634552  0.03686419  0.01936996     0.62500
H384        H  0.12589051  0.07195759  0.08108633     0.13200
H385        H  0.40851243  0.46824516  0.06774219     0.13200
C386        C  0.94733965  0.98347109  0.13251291     0.62700
F387        F  0.14614043  0.06612754  0.02732308    -0.22500
F388        F  0.07487901  0.07005309  0.99992019    -0.19800
F389        F  0.07196640  0.98535186  0.00304635    -0.19500
F390        F  0.45028933  0.02986278  0.14880046    -0.19500
F391        F  0.96770833  0.95779417  0.15260756    -0.19800
F392        F  0.39544680  0.43663528  0.12393391    -0.22500
C393        C  0.07683015  0.55816278  0.13445873     0.03600
C394        C  0.11623575  0.54391216  0.14860919    -0.12600
C395        C  0.15422549  0.57935978  0.17415533     0.01100
C396        C  0.15572997  0.63165683  0.18123077    -0.11100
C397        C  0.10518891  0.63523191  0.17537541     0.03600
C398        C  0.06903990  0.60151856  0.14925713    -0.10500
H399        H  0.11658482  0.50561658  0.13993422     0.09100
H400        H  0.19486390  0.66809782  0.19201346     0.06700
H401        H  0.03398918  0.60767519  0.14063110     0.06500
C402        C  0.21410370  0.52407755  0.18114246     0.45900
H403        H  0.21096215  0.51921900  0.15495830    -0.03100
C404        C  0.21911973  0.53303007  0.24234247     0.45900
H405        H  0.22032406  0.53666560  0.26850554    -0.03100
C406        C  0.27795440  0.55396087  0.19550569    -0.16800
C407        C  0.18747492  0.55991985  0.19479033    -0.16600
C408        C  0.18097142  0.96571456  0.19670833    -0.17000
C409        C  0.28056484  0.55869470  0.22858261    -0.16900
C410        C  0.19010390  0.56422337  0.22763311    -0.16500
C411        C  0.18386251  0.46992974  0.22871419    -0.16800
C412        C  0.05766696  0.70223350  0.24433404     0.45900
H413        H  0.06034354  0.70489529  0.27056577    -0.03100
C414        C  0.05192722  0.69607758  0.18299752     0.45900
H415        H  0.04904762  0.69400096  0.15680662    -0.03100
C416        C  0.08538729  0.76200591  0.23022943    -0.16800
C417        C  0.08890717  0.67180694  0.22965980    -0.16600
C418        C  0.99388900  0.66791672  0.23032789    -0.17000
C419        C  0.08264295  0.75845814  0.19728177    -0.16900
C420        C  0.08706007  0.66962552  0.19672187    -0.16500
C421        C  0.99081876  0.66485652  0.19745201    -0.16800
C422        C  0.37744868  0.65821798  0.13692444     0.03600
C423        C  0.43149386  0.67718583  0.15403599    -0.12600
C424        C  0.43510751  0.64294206  0.17681654     0.01100
C425        C  0.38403520  0.58998167  0.18054524    -0.11100
C426        C  0.32930448  0.58484741  0.17467381     0.03600
C427        C  0.32576220  0.61418879  0.14921767    -0.10500
H428        H  0.47083661  0.71627884  0.14827261     0.09100
H429        H  0.38673330  0.55430238  0.18877374     0.06700
H430        H  0.28335481  0.60140497  0.13893212     0.03900
C431        C  0.19336349  0.85794229  0.13996779     0.03600
C432        C  0.20334153  0.91108467  0.15380683    -0.12600
C433        C  0.16519292  0.91178934  0.17634172     0.01100
C434        C  0.11411560  0.85906261  0.18035263    -0.11100
C435        C  0.11588708  0.80806599  0.17661102     0.03600
C436        C  0.15273223  0.80651124  0.15348740    -0.10500
H437        H  0.23987415  0.95105257  0.14663984     0.09100
H438        H  0.07513208  0.85808918  0.18809181     0.06700
H439        H  0.14874804  0.76585561  0.14554916     0.06500
C440        C  0.39019797  0.67263049  0.29012375     0.03600
C441        C  0.33604393  0.62960087  0.27569664    -0.12600
C442        C  0.33519670  0.59431182  0.24995811     0.01100
C443        C  0.38844861  0.59651569  0.24473536    -0.11100
C444        C  0.94224519  0.64986917  0.25105615     0.03600
C445        C  0.94345623  0.68650465  0.27616473    -0.10500
H446        H  0.29550384  0.62324972  0.28483696     0.09100
H447        H  0.38851335  0.55865268  0.23568484     0.06700
H448        H  0.98434109  0.72488648  0.28430752     0.06500
C449        C  0.19746994  0.87732088  0.29020686     0.03600
C450        C  0.20621411  0.92663432  0.27565257    -0.12600
C451        C  0.16800206  0.92083981  0.25045204     0.01100
C452        C  0.11720761  0.86654357  0.24493435    -0.11100
C453        C  0.11933164  0.81696360  0.25088130     0.03600
C454        C  0.15775026  0.82226340  0.27582059    -0.10500
H455        H  0.24154423  0.96874445  0.28440742     0.09100
H456        H  0.07754484  0.86274307  0.23513997     0.06700
H457        H  0.15683087  0.78451223  0.28420568     0.06500
C458        C  0.07192956  0.55278734  0.28114254     0.03600
C459        C  0.11471786  0.54291194  0.26792447    -0.12600
C460        C  0.15465522  0.58177095  0.24765889     0.01100
C461        C  0.15607816  0.63430557  0.24571477    -0.11100
C462        C  0.10388983  0.63533665  0.24917252     0.03600
C463        C  0.06306903  0.59604228  0.26932104    -0.10500
H464        H  0.11797397  0.50612843  0.27413257     0.09100
H465        H  0.19526616  0.67217068  0.23918598     0.06700
H466        H  0.02554641  0.59937809  0.27620754     0.06500
O467        O  0.03172828  0.84929978  0.48851113    -0.80500
O468        O  0.35656006  0.89627582  0.41027796    -0.65200
O469        O  0.46401192  0.89484160  0.46847327    -1.11800
C470        C  0.30893212  0.78095602  0.52757002     1.06400
O471        O  0.27743924  0.87080684  0.43774623    -0.78400
O472        O  0.34706151  0.91989529  0.49482576    -0.65900
Ni473      Ni  0.02630815  0.88662000  0.45106495     1.34900
C474        C  0.38602957  0.92819110  0.51610043     0.85200
O475        O  0.47001609  0.95932643  0.41999827    -0.78900
O476        O  0.03083907  0.92598270  0.41274165    -0.89200
C477        C  0.30442473  0.88544358  0.41214695     0.84700
O478        O  0.46860682  0.81161316  0.42939042    -0.67400
O479        O  0.28981430  0.81297225  0.51819185    -0.86700
C480        C  0.43175196  0.80736617  0.40808832     0.85600
C481        C  0.00967634  0.95686407  0.40387707     1.07100
H482        H  0.33285214  0.79695678  0.44701471     0.38900
O483        O  0.35044954  0.83245784  0.46026741    -1.09300
O484        O  0.40473532  0.89307623  0.51831781    -0.66000
Ni485      Ni  0.40477625  0.83388990  0.49027795     1.26300
O486        O  0.41188415  0.84174099  0.40867503    -0.66200
O487        O  0.34528521  0.77354008  0.51216316    -0.78500
C488        C  0.01226101  0.84661906  0.51617203     0.84900
O489        O  0.45928469  0.83590926  0.51948181    -0.65700
Ni490      Ni  0.28988451  0.84383954  0.47740170     1.27400
Ni491      Ni  0.41003718  0.89593908  0.43948769     1.26100
H492        H  0.48298525  0.93062574  0.48136790     0.39500
O493        O  0.41636604  0.74532421  0.99144377    -0.80500
O494        O  0.43076152  0.93831969  0.90775703    -0.65200
O495        O  0.44970816  0.85511200  0.97040134    -1.11800
C496        C  0.30355778  0.86762699  0.02184433     1.06400
O497        O  0.40119938  0.99094873  0.93466174    -0.78400
O498        O  0.44397554  0.98446944  0.99481026    -0.65900
Ni499      Ni  0.45770685  0.79056062  0.95657576     1.34900
C500        C  0.45322683  0.95986464  0.01725867     0.85200
O501        O  0.51241984  0.91503195  0.91984823    -0.78900
O502        O  0.50361381  0.82886698  0.92101642    -0.89200
C503        C  0.41743326  0.97681055  0.90935602     0.84700
O504        O  0.38681650  0.75375676  0.93019533    -0.67400
O505        O  0.32992841  0.91769274  0.01128262    -0.86700
C506        C  0.37471254  0.77796640  0.90875432     0.85600
C507        C  0.52415750  0.87766322  0.90920096     1.07100
H508        H  0.33633717  0.85746223  0.94450025     0.38900
O509        O  0.37068896  0.88247371  0.95819776    -1.09300
O510        O  0.42599536  0.90543129  0.01875512    -0.66000
Ni511      Ni  0.37912275  0.83977185  0.99000240     1.26300
O512        O  0.39669454  0.83228553  0.90900377    -0.66200
O513        O  0.30959289  0.82672334  0.01011738    -0.78500
C514        C  0.39910582  0.75691932  0.01712167     0.84900
O515        O  0.38902651  0.79779290  0.02082737    -0.65700
Ni516      Ni  0.36827871  0.95030177  0.97269554     1.27400
Ni517      Ni  0.44135727  0.89793279  0.93879633     1.26100
H518        H  0.48385877  0.88075044  0.98402056     0.39500
C519        C  0.41913442  0.55881455  0.63522276     0.03600
C520        C  0.36808471  0.54277321  0.65231383    -0.12600
C521        C  0.37013394  0.57936552  0.67783921     0.01100
C522        C  0.42298503  0.63170940  0.68331672    -0.11100
C523        C  0.47586643  0.63400835  0.67719734     0.03600
C524        C  0.47413458  0.59988267  0.65047711    -0.10500
H525        H  0.32651467  0.00635458  0.64252793     0.09100
H526        H  0.42308181  0.66946719  0.69267222     0.06700
H527        H  0.51477779  0.60651444  0.64123342     0.06500
C528        C  0.43301594  0.56727462  0.78956377     0.03600
C529        C  0.48528206  0.60731328  0.77577734    -0.12600
C530        C  0.48270239  0.64119603  0.75223538     0.01100
C531        C  0.42920655  0.63964863  0.74784226    -0.11100
C532        C  0.37667364  0.58834169  0.75219844     0.03600
C533        C  0.37857329  0.55451598  0.77561343    -0.10500
H534        H  0.02552067  0.60955240  0.78323206     0.09100
H535        H  0.42837377  0.67631451  0.73962814     0.06700
H536        H  0.33817350  0.51889817  0.78322876     0.06500
C537        C  0.25512385  0.52796381  0.68439354     0.45900
H538        H  0.25265905  0.52519445  0.65817110    -0.03100
C539        C  0.26053784  0.53486832  0.74563589     0.45900
H540        H  0.26313244  0.53759461  0.77181344    -0.03100
C541        C  0.31879146  0.56274985  0.69853963    -0.16800
C542        C  0.22316300  0.55789507  0.69879606    -0.16600
C543        C  0.22589554  0.96763680  0.69699165    -0.17000
C544        C  0.32173997  0.56715776  0.73148317    -0.16900
C545        C  0.22499912  0.56065374  0.73171964    -0.16500
C546        C  0.22940449  0.97181019  0.72989144    -0.16800
C547        C  0.09212666  0.69631051  0.68471085     0.45900
H548        H  0.09071218  0.69306941  0.65851932    -0.03100
C549        C  0.09724821  0.70437049  0.74602485     0.45900
H550        H  0.09947196  0.70777983  0.77225311    -0.03100
C551        C  0.12612195  0.75945628  0.69861588    -0.16800
C552        C  0.03067830  0.66898958  0.69859235    -0.16600
C553        C  0.12245824  0.66604807  0.69933326    -0.17000
C554        C  0.12883629  0.76385424  0.73158312    -0.16900
C555        C  0.03353239  0.67291048  0.73165948    -0.16500
C556        C  0.12517804  0.67028421  0.73218342    -0.16800
C557        C  0.10938966  0.85206721  0.63882171     0.03600
C558        C  0.14961800  0.90699503  0.65326415    -0.12600
C559        C  0.19016251  0.91225359  0.67684656     0.01100
C560        C  0.19237016  0.86233318  0.68196115    -0.11100
C561        C  0.14068415  0.80827074  0.67760286     0.03600
C562        C  0.10106613  0.80258179  0.65322551    -0.10500
H563        H  0.15038816  0.94497190  0.64533377     0.09100
H564        H  0.23270916  0.86571238  0.69030754     0.06700
H565        H  0.06540166  0.76036550  0.64490174     0.06500
C566        C  0.23530145  0.67059312  0.64387444     0.03600
C567        C  0.24663234  0.63032378  0.65740966    -0.12600
C568        C  0.20734952  0.59325181  0.67886025     0.01100
C569        C  0.15531491  0.59461272  0.68242860    -0.11100
C570        C  0.15648739  0.64679895  0.67925823     0.03600
C571        C  0.19492715  0.68334825  0.65770419    -0.10500
H572        H  0.28438565  0.62723724  0.65071907     0.09100
H573        H  0.11630353  0.55727161  0.68951449     0.06700
H574        H  0.19236710  0.72029623  0.65092003     0.06500
C575        C  0.23403667  0.67281305  0.79383004     0.03600
C576        C  0.24368290  0.63067503  0.77869287    -0.12600
C577        C  0.20737871  0.59593865  0.75276919     0.01100
C578        C  0.15674578  0.59914595  0.74682958    -0.11100
C579        C  0.15875987  0.65182048  0.75301502     0.03600
C580        C  0.19651938  0.68800557  0.77845189    -0.10500
H581        H  0.27948566  0.62546554  0.78716048     0.09100
H582        H  0.11736295  0.56226881  0.73659261     0.06700
H583        H  0.19738015  0.72741935  0.78599326     0.06500
C584        C  0.12991805  0.87500606  0.79170237     0.03600
C585        C  0.16670127  0.92533439  0.77629342    -0.12600
C586        C  0.19896675  0.92248136  0.75104801     0.01100
C587        C  0.19912157  0.87072978  0.74625172    -0.11100
C588        C  0.14835823  0.81866970  0.75192363     0.03600
C589        C  0.11458485  0.82108352  0.77653085    -0.10500
H590        H  0.17056649  0.96594833  0.78429120     0.09100
H591        H  0.23682304  0.87068605  0.73727388     0.06700
H592        H  0.07749700  0.78200672  0.78413815     0.06500
C593        C  0.27655652  0.72423272  0.88082895    -0.05300
C594        C  0.33689769  0.74349119  0.88091026     0.00600
C595        C  0.36179228  0.73902535  0.85240799    -0.08000
C596        C  0.32810706  0.72424186  0.82419054    -0.05400
C597        C  0.26755606  0.70269272  0.82385661     0.00600
C598        C  0.24035773  0.70007878  0.85287018    -0.07900
C599        C  0.17389143  0.66961680  0.85468558     0.62500
H600        H  0.25798180  0.72740824  0.90286778     0.13200
H601        H  0.34844402  0.72425838  0.80218637     0.13200
C602        C  0.42155369  0.74460798  0.85015007     0.62700
F603        F  0.15722327  0.66881697  0.88550444    -0.22500
F604        F  0.14873029  0.61310108  0.84242328    -0.19800
F605        F  0.15175552  0.69725360  0.83768367    -0.19500
F606        F  0.44773673  0.74869692  0.87918941    -0.19500
F607        F  0.45775290  0.79222776  0.83385867    -0.19800
F608        F  0.41511458  0.69582042  0.83378567    -0.22500
C609        C  0.07591927  0.90816586  0.82514433    -0.05300
C610        C  0.10719131  0.87924119  0.82274762     0.00600
C611        C  0.11928050  0.85825227  0.85020215    -0.08000
C612        C  0.09423578  0.86186029  0.87850218    -0.05400
C613        C  0.05868601  0.88660729  0.88043643     0.00600
C614        C  0.55254205  0.91469848  0.85395018    -0.07900
C615        C  0.51434029  0.94164555  0.85356049     0.62500
H616        H  0.06885107  0.92529515  0.80402356     0.13200
H617        H  0.10047299  0.84323630  0.89921586     0.13200
C618        C  0.15820793  0.83191223  0.84983021     0.62700
F619        F  0.51391645  0.96403184  0.82492618    -0.22500
F620        F  0.53490099  0.98652139  0.87661611    -0.19800
F621        F  0.45731777  0.89949951  0.85848637    -0.19500
F622        F  0.21052699  0.86802969  0.83619651    -0.19500
F623        F  0.12946796  0.77921466  0.83281515    -0.19800
F624        F  0.17165308  0.82310151  0.87998803    -0.22500
C625        C  0.38809641  0.46105996  0.85279653    -0.05300
C626        C  0.41638220  0.49811002  0.87986677     0.00600
C627        C  0.45534388  0.55755725  0.87665263    -0.08000
C628        C  0.46272886  0.57824281  0.84619561    -0.05400
C629        C  0.43396965  0.54088161  0.81916329     0.00600
C630        C  0.39833188  0.48087301  0.82240161    -0.07900
C631        C  0.37158005  0.43596364  0.79468280     0.62500
H632        H  0.36184505  0.91795542  0.85678686     0.13200
H633        H  0.48960117  0.62410947  0.84336174     0.13200
C634        C  0.48902990  0.59849490  0.90510547     0.62700
F635        F  0.38139035  0.39108092  0.79970572    -0.22500
F636        F  0.39567699  0.45793955  0.76639402    -0.19800
F637        F  0.31159593  0.41417951  0.79218261    -0.19500
F638        F  0.52163470  0.57928759  0.92075423    -0.19500
F639        F  0.45885783  0.10889242  0.92303872    -0.19800
F640        F  0.52733918  0.65384857  0.89653018    -0.22500
C641        C  0.29246443  0.75703104  0.61522386    -0.05300
C642        C  0.26100381  0.69694869  0.61439957     0.00600
C643        C  0.24371346  0.66409202  0.58497002    -0.08000
C644        C  0.26131462  0.69327592  0.55708991    -0.05400
C645        C  0.29114055  0.75367232  0.55787194     0.00600
C646        C  0.30639611  0.78623911  0.58746144    -0.07900
C647        C  0.33846894  0.85141713  0.59020469     0.62500
H648        H  0.30380302  0.78082777  0.63808098     0.13200
H649        H  0.24993380  0.66916349  0.53432948     0.13200
C650        C  0.20310275  0.59902378  0.58300685     0.62700
F651        F  0.34667998  0.87368784  0.62123582    -0.22500
F652        F  0.30676286  0.87065665  0.57381095    -0.19800
F653        F  0.39305432  0.87200440  0.57823049    -0.19500
F654        F  0.15222117  0.58545872  0.59813916    -0.19500
F655        F  0.23012900  0.57326674  0.59749536    -0.19800
F656        F  0.18769322  0.57598846  0.55206654    -0.22500
C657        C  0.45680067  0.02077893  0.59257108    -0.05300
C658        C  0.41515724  0.53419604  0.60212185     0.00600
C659        C  0.37181710  0.52697478  0.57878455    -0.08000
C660        C  0.36506078  0.99417606  0.54897924    -0.05400
C661        C  0.40403337  0.97461113  0.54202790     0.00600
C662        C  0.45441854  0.99383034  0.56283911    -0.07900
C663        C  0.50728208  0.98932576  0.55358960     0.62500
H664        H  0.49139166  0.02922250  0.60982650     0.13200
H665        H  0.32785211  0.98203894  0.53272790     0.13200
C666        C  0.32995869  0.54941877  0.58341874     0.62700
F667        F  0.49630107  0.93384356  0.55522562    -0.22500
F668        F  0.52168742  0.00684754  0.52336880    -0.19800
F669        F  0.55584422  0.02462143  0.57347988    -0.19500
F670        F  0.35565640  0.60011247  0.60249853    -0.19500
F671        F  0.27954579  0.50784276  0.59644040    -0.19800
F672        F  0.31414739  0.56149164  0.55471894    -0.22500
C673        C  0.00259729  0.80518797  0.56741946    -0.05300
C674        C  0.04054293  0.83889040  0.54435394     0.00600
C675        C  0.10126375  0.87485840  0.55231972    -0.08000
C676        C  0.12144858  0.87718830  0.58351769    -0.05400
C677        C  0.08267091  0.84714160  0.60709586     0.00600
C678        C  0.02195463  0.81095441  0.59910290    -0.07900
C679        C  0.97585966  0.78169822  0.62334369     0.62500
H680        H  0.45353845  0.77039832  0.56106272     0.13200
H681        H  0.16798422  0.90369344  0.58998706     0.13200
C682        C  0.14397618  0.91276971  0.52861017     0.62700
F683        F  0.42499547  0.78746699  0.61624472    -0.22500
F684        F  0.99524234  0.80865162  0.65331115    -0.19800
F685        F  0.96073991  0.72457814  0.62404486    -0.19500
F686        F  0.12800010  0.95128006  0.51863497    -0.19500
F687        F  0.14334326  0.87880099  0.50290718    -0.19800
F688        F  0.20107420  0.94427068  0.54140823    -0.22500
C689        C  0.05520349  0.56177688  0.33714242    -0.05300
C690        C  0.04467686  0.52467340  0.31024749     0.00600
C691        C  0.02372967  0.96718106  0.31628768    -0.08000
C692        C  0.01672177  0.94749653  0.34674369    -0.05400
C693        C  0.02575948  0.98400170  0.37361304     0.00600
C694        C  0.04633106  0.54204818  0.36771308    -0.07900
C695        C  0.06177811  0.58488204  0.39603491     0.62500
H696        H  0.07390583  0.60739164  0.33413029     0.13200
H697        H  0.00152545  0.90229276  0.34948226     0.13200
C698        C  0.00704043  0.92293461  0.28865985     0.62700
F699        F  0.08517189  0.64086228  0.38714313    -0.22500
F700        F  0.10305876  0.58333046  0.41585204    -0.19800
F701        F  0.01212007  0.57142503  0.41237917    -0.19500
F702        F  0.04724799  0.90451613  0.28764145    -0.19500
F703        F  0.00421065  0.94393608  0.25999174    -0.19800
F704        F  0.95224066  0.87604355  0.29279700    -0.22500
C705        C  0.19176133  0.86875249  0.34758461    -0.05300
C706        C  0.22652463  0.88298638  0.32119381     0.00600
C707        C  0.28666759  0.90148550  0.32482039    -0.08000
C708        C  0.31017357  0.90439809  0.35520668    -0.05400
C709        C  0.27540044  0.88817491  0.38207732     0.00600
C710        C  0.21485015  0.87085154  0.37815355    -0.07900
C711        C  0.17411003  0.85404372  0.40547235     0.62500
H712        H  0.14570957  0.85517239  0.34380216     0.13200
H713        H  0.35648298  0.91859801  0.35779241     0.13200
C714        C  0.32541711  0.91643059  0.29661739     0.62700
F715        F  0.11816400  0.84155844  0.39602790    -0.22500
F716        F  0.19613447  0.89917455  0.42848134    -0.19800
F717        F  0.16888123  0.80538813  0.41810151    -0.19500
F718        F  0.33298067  0.96635798  0.28462206    -0.19500
F719        F  0.29964785  0.87188577  0.27325090    -0.19800
F720        F  0.38053596  0.92536512  0.30475413    -0.22500
C721        C  0.41757827  0.69054380  0.34704344    -0.05300
C722        C  0.39301325  0.70226248  0.32086747     0.00600
C723        C  0.37492955  0.74317824  0.32426016    -0.08000
C724        C  0.38695636  0.77492026  0.35347339    -0.05400
C725        C  0.41473481  0.76590073  0.37964418     0.00600
C726        C  0.42779092  0.72075561  0.37671740    -0.07900
C727        C  0.45177660  0.70363581  0.40436330     0.62500
H728        H  0.42969737  0.65781546  0.34378948     0.13200
H729        H  0.37537027  0.80808307  0.35567697     0.13200
C730        C  0.34391540  0.75392758  0.29712352     0.62700
F731        F  0.45202388  0.65306984  0.39710884    -0.22500
F732        F  0.41702291  0.69468637  0.42992764    -0.19800
F733        F  0.00946814  0.74736624  0.41381763    -0.19500
F734        F  0.28817376  0.70671942  0.29106162    -0.19500
F735        F  0.37540577  0.76368202  0.27012841    -0.19800
F736        F  0.33766479  0.80115464  0.30411946    -0.22500
C737        C  0.28868876  0.84294523  0.07785114    -0.05300
C738        C  0.27046378  0.85959524  0.05091935     0.00600
C739        C  0.22622897  0.87443360  0.05344105    -0.08000
C740        C  0.20206268  0.87242020  0.08297508    -0.05400
C741        C  0.22079940  0.85664977  0.10992268     0.00600
C742        C  0.26505199  0.84198953  0.10761107    -0.07900
C743        C  0.28916892  0.82853741  0.13674875     0.62500
H744        H  0.32343353  0.83294518  0.07566648     0.13200
H745        H  0.16815528  0.88353032  0.08539991     0.13200
C746        C  0.20309810  0.89042246  0.02490871     0.62700
F747        F  0.33752645  0.82331232  0.13022432    -0.22500
F748        F  0.24653647  0.77742924  0.14803016    -0.19800
F749        F  0.30636466  0.87229455  0.16024848    -0.19500
F750        F  0.18239918  0.84614361  0.00145217    -0.19500
F751        F  0.24710763  0.94060846  0.01342737    -0.19800
F752        F  0.15743943  0.89950730  0.03229098    -0.22500
C753        C  0.42426995  0.68737445  0.08605992    -0.05300
C754        C  0.37772412  0.67963955  0.10507435     0.00600
C755        C  0.33431834  0.69092406  0.09249925    -0.08000
C756        C  0.34074856  0.71061019  0.06204055    -0.05400
C757        C  0.38960766  0.72240854  0.04450372     0.00600
C758        C  0.43202842  0.71013902  0.05636215    -0.07900
C759        C  0.48668072  0.72368432  0.03866515     0.62500
H760        H  0.45565072  0.67617046  0.09489591     0.13200
H761        H  0.30823882  0.71932535  0.05195202     0.13200
C762        C  0.28134595  0.68386028  0.10985230     0.62700
F763        F  0.02300825  0.70975254  0.05568996    -0.22500
F764        F  0.01793796  0.78098481  0.03367251    -0.19800
F765        F  0.47064344  0.69121504  0.01011556    -0.19500
F766        F  0.29483943  0.69856493  0.14185651    -0.19500
F767        F  0.23523317  0.62764879  0.10478926    -0.19800
F768        F  0.26198245  0.71893520  0.09851333    -0.22500
C769        C  0.07635670  0.53210936  0.07778345    -0.05300
C770        C  0.04382325  0.52900344  0.10431680     0.00600
C771        C  0.98233277  0.50602085  0.10035119    -0.08000
C772        C  0.45618255  0.98163751  0.07340852    -0.05400
C773        C  0.98820992  0.99316588  0.04603030     0.00600
C774        C  0.04896410  0.51220535  0.04732386    -0.07900
C775        C  0.08436073  0.51446292  0.01917755     0.62500
H776        H  0.12346639  0.55071636  0.08107576     0.13200
H777        H  0.40860595  0.95582249  0.07099451     0.13200
C778        C  0.94143621  0.49503035  0.12718513     0.62700
F779        F  0.14392822  0.54140845  0.02728173    -0.22500
F780        F  0.07623803  0.54470331  0.99614177    -0.19800
F781        F  0.06598564  0.45916196  0.00695395    -0.19500
F782        F  0.42056822  0.52973436  0.12789236    -0.19500
F783        F  0.96737814  0.49985246  0.15663931    -0.19800
F784        F  0.38909401  0.94455895  0.12431656    -0.22500
C785        C  0.57849551  0.06098037  0.13604084     0.03600
C786        C  0.61620692  0.04512418  0.15057021    -0.12600
C787        C  0.65348531  0.07965034  0.17657227     0.01100
C788        C  0.65558495  0.13211778  0.18383206    -0.11100
C789        C  0.60576421  0.13652982  0.17745774     0.03600
C790        C  0.57145110  0.10475855  0.15050415    -0.10500
H791        H  0.61600364  0.00661682  0.14176025     0.09100
H792        H  0.69485358  0.16827197  0.19469316     0.06700
H793        H  0.53904010  0.11336572  0.14051743     0.06500
C794        C  0.71267434  0.02410809  0.18316683     0.45900
H795        H  0.70935316  0.01983039  0.15700544    -0.03100
C796        C  0.71739446  0.03165981  0.24434868     0.45900
H797        H  0.71867906  0.03476699  0.27052398    -0.03100
C798        C  0.77647353  0.05364489  0.19755513    -0.16800
C799        C  0.68588588  0.05945379  0.19718453    -0.16600
C800        C  0.68318686  0.46503559  0.19644375    -0.17000
C801        C  0.77903333  0.05807997  0.23061575    -0.16900
C802        C  0.68813698  0.06306455  0.23004465    -0.16500
C803        C  0.68247193  0.96869194  0.23014722    -0.16800
C804        C  0.55600703  0.20215721  0.24605160     0.45900
H805        H  0.55825543  0.20497910  0.27228647    -0.03100
C806        C  0.55134654  0.19598805  0.18474357     0.45900
H807        H  0.54915071  0.19447857  0.15859179    -0.03100
C808        C  0.58414393  0.26194047  0.23181560    -0.16800
C809        C  0.58745905  0.17152739  0.23177595    -0.16600
C810        C  0.49238032  0.16787117  0.23169241    -0.17000
C811        C  0.58205374  0.25819275  0.19894121    -0.16900
C812        C  0.58639624  0.16972673  0.19881310    -0.16500
C813        C  0.48983308  0.16466572  0.19873768    -0.16800
C814        C  0.87537561  0.15304623  0.13691875     0.03600
C815        C  0.92997480  0.17306982  0.15368905    -0.12600
C816        C  0.93375988  0.14166863  0.17821750     0.01100
C817        C  0.88270884  0.08934298  0.18299653    -0.11100
C818        C  0.82790740  0.08373384  0.17668322     0.03600
C819        C  0.82404713  0.11088206  0.15028636    -0.10500
H820        H  0.96918400  0.21090924  0.14661595     0.09100
H821        H  0.88549651  0.05413971  0.19183860     0.06700
H822        H  0.78167618  0.09780114  0.13995525     0.03900
C823        C  0.69802132  0.35501970  0.14317089     0.03600
C824        C  0.70777006  0.40882026  0.15580997    -0.12600
C825        C  0.66817038  0.41067623  0.17690230     0.01100
C826        C  0.61640196  0.35849079  0.18073462    -0.11100
C827        C  0.61779701  0.30720468  0.17845680     0.03600
C828        C  0.65628194  0.30444620  0.15686255    -0.10500
H829        H  0.74473085  0.44839326  0.14853490     0.09100
H830        H  0.57738936  0.35835475  0.18767670     0.06700
H831        H  0.65226643  0.26337833  0.14990130     0.06500
C832        C  0.88811817  0.17420645  0.29148315     0.03600
C833        C  0.83416236  0.13067615  0.27707795    -0.12600
C834        C  0.83368776  0.09465530  0.25188266     0.01100
C835        C  0.88724141  0.09713961  0.24705090    -0.11100
C836        C  0.44050779  0.15014131  0.25225622     0.03600
C837        C  0.44134208  0.18723637  0.27702419    -0.10500
H838        H  0.79334703  0.12392397  0.28599294     0.09100
H839        H  0.88768430  0.05912179  0.23867062     0.06700
H840        H  0.48217940  0.22558695  0.28525926     0.06500
C841        C  0.69703135  0.37769236  0.29109332     0.03600
C842        C  0.70617916  0.42699808  0.27630235    -0.12600
C843        C  0.66872306  0.42119807  0.25070190     0.01100
C844        C  0.61745325  0.36714870  0.24534077    -0.11100
C845        C  0.61840269  0.31722558  0.25211258     0.03600
C846        C  0.65672677  0.32258650  0.27706047    -0.10500
H847        H  0.74139175  0.46914726  0.28507904     0.09100
H848        H  0.57842203  0.36368079  0.23482306     0.06700
H849        H  0.65532749  0.28477831  0.28570915     0.06500
C850        C  0.57197829  0.05436138  0.28485615     0.03600
C851        C  0.61439254  0.04385984  0.27144870    -0.12600
C852        C  0.65335882  0.08146929  0.25036304     0.01100
C853        C  0.65464918  0.13389877  0.24806678    -0.11100
C854        C  0.60263780  0.13528831  0.25160718     0.03600
C855        C  0.56256668  0.09697520  0.27245942    -0.10500
H856        H  0.61820900  0.00762779  0.27806332     0.09100
H857        H  0.69394978  0.17174054  0.24167670     0.06700
H858        H  0.52510953  0.10044537  0.27931963     0.06500
O859        O  0.53385030  0.35466666  0.48918263    -0.80500
O860        O  0.85885602  0.40029379  0.41039946    -0.65200
O861        O  0.96982160  0.40292228  0.46727250    -1.11800
C862        C  0.81851745  0.29576848  0.53095017     1.06400
O863        O  0.78069229  0.37553958  0.43861220    -0.78400
O864        O  0.85357410  0.43095141  0.49391439    -0.65900
Ni865      Ni  0.52537810  0.38777517  0.45067760     1.34900
C866        C  0.89365861  0.44146712  0.51493435     0.85200
O867        O  0.97278510  0.46208164  0.41693218    -0.78900
O868        O  0.52845662  0.42450969  0.41146200    -0.89200
C869        C  0.80665924  0.38898529  0.41267634     0.84700
O870        O  0.96984393  0.31471922  0.43008503    -0.67400
O871        O  0.79886786  0.32704794  0.52103899    -0.86700
C872        C  0.93183413  0.30954270  0.40921392     0.85600
C873        C  0.50983423  0.45771765  0.40319680     1.07100
H874        H  0.83786536  0.30407084  0.44993734     0.38900
O875        O  0.85601970  0.34086549  0.46200051    -1.09300
O876        O  0.91395198  0.40775709  0.51789531    -0.66000
Ni877      Ni  0.91264223  0.34603141  0.49173253     1.26300
O878        O  0.91280106  0.34452944  0.40941758    -0.66200
O879        O  0.85540891  0.28855511  0.51600293    -0.78500
C880        C  0.50939793  0.34564436  0.51573581     0.84900
O881        O  0.96953370  0.35293239  0.52071750    -0.65700
Ni882      Ni  0.79611626  0.35336734  0.47913092     1.27400
Ni883      Ni  0.91406654  0.40176664  0.43891512     1.26100
H884        H  0.99024307  0.43984584  0.47850149     0.39500
O885        O  0.91086764  0.23620088  0.99036920    -0.80500
O886        O  0.92533547  0.43028088  0.90722412    -0.65200
O887        O  0.94607386  0.34673106  0.96929173    -1.11800
C888        C  0.80370716  0.36180543  0.02396979     1.06400
O889        O  0.89337535  0.48088076  0.93424244    -0.78400
O890        O  0.93935854  0.47806478  0.99371725    -0.65900
Ni891      Ni  0.95284929  0.28134656  0.95547784     1.34900
C892        C  0.95201661  0.45518154  0.01577875     0.85200
O893        O  0.00661489  0.40536260  0.91851177    -0.78900
O894        O  0.99869003  0.31929985  0.91976556    -0.89200
C895        C  0.91115381  0.46827551  0.90907009     0.84700
O896        O  0.88226384  0.24495248  0.92902313    -0.67400
O897        O  0.82699861  0.41070494  0.01212210    -0.86700
C898        C  0.87007835  0.26949583  0.90784143     0.85600
C899        C  0.01899498  0.36824900  0.90809326     1.07100
H900        H  0.83166428  0.34801334  0.94551103     0.38900
O901        O  0.86652264  0.37407379  0.95861497    -1.09300
O902        O  0.92712187  0.40093710  0.01790525    -0.66000
Ni903      Ni  0.87796019  0.33323939  0.99064539     1.26300
O904        O  0.89118297  0.32370610  0.90853280    -0.66200
O905        O  0.81051761  0.32116782  0.01265394    -0.78500
C906        C  0.89708780  0.24949949  0.01677634     0.84900
O907        O  0.89114854  0.29291861  0.02131964    -0.65700
Ni908      Ni  0.86276896  0.44150321  0.97273645     1.27400
Ni909      Ni  0.93646808  0.38930651  0.93809520     1.26100
H910        H  0.98109294  0.37234248  0.98227571     0.39500
C911        C  0.91712318  0.06236821  0.63380014     0.03600
C912        C  0.86621034  0.04576428  0.65092771    -0.12600
C913        C  0.86804773  0.08166578  0.67664595     0.01100
C914        C  0.92098255  0.13393391  0.68268252    -0.11100
C915        C  0.97391880  0.13641565  0.67623637     0.03600
C916        C  0.97208015  0.10333788  0.64902775    -0.10500
H917        H  0.82630896  0.50538621  0.64479021     0.09100
H918        H  0.92108133  0.17125896  0.69280445     0.06700
H919        H  0.01259400  0.11017016  0.63956371     0.06500
C920        C  0.93033604  0.06379601  0.78728861     0.03600
C921        C  0.98250371  0.10399049  0.77359646    -0.12600
C922        C  0.98027960  0.13941765  0.75101901     0.01100
C923        C  0.92693275  0.13835552  0.74712592    -0.11100
C924        C  0.87416775  0.08679404  0.75079312     0.03600
C925        C  0.87579068  0.05148419  0.77351745    -0.10500
H926        H  0.52490784  0.10924286  0.78082659     0.09100
H927        H  0.92639335  0.17566863  0.73976970     0.06700
H928        H  0.83527967  0.01566320  0.78094044     0.06500
C929        C  0.75264979  0.02911663  0.68279488     0.45900
H930        H  0.74994379  0.02617025  0.65657663    -0.03100
C931        C  0.75821542  0.03585177  0.74406159     0.45900
H932        H  0.76094109  0.03851004  0.77023597    -0.03100
C933        C  0.81646091  0.06376823  0.69717979    -0.16800
C934        C  0.72136239  0.05969400  0.69707460    -0.16600
C935        C  0.72686149  0.47036233  0.69823423    -0.17000
C936        C  0.81939753  0.06745940  0.73010870    -0.16900
C937        C  0.72283228  0.06176671  0.72995080    -0.16500
C938        C  0.73029594  0.47407506  0.73114799    -0.16800
C939        C  0.59129091  0.19905475  0.68389116     0.45900
H940        H  0.59058795  0.19657488  0.65770557    -0.03100
C941        C  0.59527827  0.20534416  0.74519825     0.45900
H942        H  0.59704872  0.20782310  0.77142155    -0.03100
C943        C  0.62526993  0.26187029  0.69836455    -0.16800
C944        C  0.52944050  0.17125824  0.69735822    -0.16600
C945        C  0.62131399  0.16839130  0.69835602    -0.17000
C946        C  0.62761344  0.26540248  0.73136324    -0.16900
C947        C  0.53176865  0.17421730  0.73043789    -0.16500
C948        C  0.62326922  0.17155210  0.73114707    -0.16800
C949        C  0.61059735  0.35643812  0.63923433     0.03600
C950        C  0.65132433  0.41106350  0.65378195    -0.12600
C951        C  0.69112370  0.41542047  0.67760273     0.01100
C952        C  0.69276700  0.36505055  0.68226686    -0.11100
C953        C  0.64079107  0.31126253  0.67763367     0.03600
C954        C  0.60170140  0.30641821  0.65319354    -0.10500
H955        H  0.65260390  0.44935821  0.64599995     0.09100
H956        H  0.73300757  0.36783655  0.69025870     0.06700
H957        H  0.56520707  0.26461296  0.64475262     0.06500
C958        C  0.74089105  0.18044047  0.64600046     0.03600
C959        C  0.74963438  0.13724323  0.65801544    -0.12600
C960        C  0.70775201  0.09731904  0.67758450     0.01100
C961        C  0.65553528  0.09864798  0.68046652    -0.11100
C962        C  0.65743664  0.15150618  0.67862153     0.03600
C963        C  0.69906156  0.19139765  0.65941403    -0.10500
H964        H  0.78735261  0.13398363  0.65147534     0.09100
H965        H  0.61596391  0.06087033  0.68672150     0.06700
H966        H  0.69744496  0.22937875  0.65376825     0.06500
C967        C  0.73294676  0.17350776  0.79184019     0.03600
C968        C  0.74189291  0.13123253  0.77657886    -0.12600
C969        C  0.70511274  0.09664474  0.75091517     0.01100
C970        C  0.65453969  0.09999440  0.74503930    -0.11100
C971        C  0.65673629  0.15267419  0.75168168     0.03600
C972        C  0.69521070  0.18887365  0.77689866    -0.10500
H973        H  0.77759282  0.12570017  0.78481553     0.09100
H974        H  0.61556339  0.06368322  0.73400424     0.06700
H975        H  0.69636120  0.22835479  0.78460576     0.06500
C976        C  0.63376540  0.37656157  0.79355799     0.03600
C977        C  0.66934507  0.42692195  0.77795129    -0.12600
C978        C  0.70014771  0.42419295  0.75199914     0.01100
C979        C  0.69939335  0.37210607  0.74632519    -0.11100
C980        C  0.64889505  0.32005725  0.75234773     0.03600
C981        C  0.61746675  0.32250677  0.77817451    -0.10500
H982        H  0.67332241  0.46741625  0.78633250     0.09100
H983        H  0.73683799  0.37191706  0.73710898     0.06700
H984        H  0.58149565  0.28348330  0.78658983     0.06500
C985        C  0.77309014  0.21910396  0.87926857    -0.05300
C986        C  0.83273427  0.23570598  0.87986594     0.00600
C987        C  0.85828873  0.23194511  0.85149886    -0.08000
C988        C  0.82629366  0.22106929  0.82299273    -0.05400
C989        C  0.76604460  0.20173125  0.82212415     0.00600
C990        C  0.73793335  0.19788900  0.85092317    -0.07900
C991        C  0.67141278  0.16840025  0.85217634     0.62500
H992        H  0.75419080  0.22199946  0.90124038     0.13200
H993        H  0.84731826  0.22208833  0.80109619     0.13200
C994        C  0.91741792  0.23580605  0.84978055     0.62700
F995        F  0.65402589  0.16656961  0.88289034    -0.22500
F996        F  0.64580719  0.11223375  0.83925608    -0.19800
F997        F  0.65037589  0.19745066  0.83554417    -0.19500
F998        F  0.93880664  0.23160931  0.87878861    -0.19500
F999        F  0.95711243  0.28705516  0.83752800    -0.19800
F1000       F  0.91193913  0.19074756  0.82992465    -0.22500
C1001       C  0.57648599  0.40616255  0.82616070    -0.05300
C1002       C  0.61084852  0.38050016  0.82440875     0.00600
C1003       C  0.62469269  0.36159401  0.85209870    -0.08000
C1004       C  0.59496852  0.35987631  0.87951324    -0.05400
C1005       C  0.55656432  0.38153098  0.88075440     0.00600
C1006       C  0.04874525  0.40677892  0.85344285    -0.07900
C1007       C  0.01062523  0.43390879  0.85297542     0.62500
H1008       H  0.56892877  0.42264157  0.80490436     0.13200
H1009       H  0.60167227  0.34171871  0.90030311     0.13200
C1010       C  0.67362214  0.34762772  0.85334271     0.62700
F1011       F  0.01207325  0.45798541  0.82466768    -0.22500
F1012       F  0.03031038  0.47778478  0.87658203    -0.19800
F1013       F  0.95308823  0.39183303  0.85697342    -0.19500
F1014       F  0.72520910  0.39473084  0.84466503    -0.19500
F1015       F  0.65998201  0.30050113  0.83303788    -0.19800
F1016       F  0.68341915  0.33543379  0.88341446    -0.22500
C1017       C  0.88949107  0.96287904  0.85315884    -0.05300
C1018       C  0.91951649  0.00212059  0.87930518     0.00600
C1019       C  0.95851162  0.06083590  0.87448986    -0.08000
C1020       C  0.96329689  0.07885192  0.84352766    -0.05400
C1021       C  0.93242830  0.03946466  0.81745634     0.00600
C1022       C  0.89750717  0.97998423  0.82217413    -0.07900
C1023       C  0.86976804  0.93285115  0.79555854     0.62500
H1024       H  0.85830864  0.41359768  0.85500885     0.13200
H1025       H  0.99005891  0.12427084  0.83954118     0.13200
C1026       C  0.99520834  0.10372446  0.90171751     0.62700
F1027       F  0.88252826  0.89001206  0.80103175    -0.22500
F1028       F  0.89038798  0.95282173  0.76638897    -0.19800
F1029       F  0.80942922  0.90889632  0.79458241    -0.19500
F1030       F  0.02886073  0.08518115  0.91690141    -0.19500
F1031       F  0.94807081  0.59863174  0.92548263    -0.19800
F1032       F  0.03291877  0.15797205  0.89152468    -0.22500
C1033       C  0.80263473  0.26890165  0.61845433    -0.05300
C1034       C  0.76745436  0.20863974  0.61688208     0.00600
C1035       C  0.74775534  0.17738521  0.58700209    -0.08000
C1036       C  0.76542057  0.20767263  0.55951803    -0.05400
C1037       C  0.79973867  0.26791389  0.56104203     0.00600
C1038       C  0.81918035  0.29930710  0.59090856    -0.07900
C1039       C  0.85777647  0.36438473  0.59366005     0.62500
H1040       H  0.81563366  0.29196646  0.64153509     0.13200
H1041       H  0.75165670  0.18456317  0.53646171     0.13200
C1042       C  0.70552126  0.11261876  0.58419845     0.62700
F1043       F  0.87209320  0.38643230  0.62480847    -0.22500
F1044       F  0.82863018  0.38859838  0.57954174    -0.19800
F1045       F  0.90947781  0.38006043  0.57893950    -0.19500
F1046       F  0.65631991  0.09947878  0.60090680    -0.19500
F1047       F  0.73253432  0.08482947  0.59633048    -0.19800
F1048       F  0.68718054  0.09155770  0.55314301    -0.22500
C1049       C  0.95803415  0.52365421  0.59272334    -0.05300
C1050       C  0.91296788  0.03755064  0.60085048     0.00600
C1051       C  0.86946330  0.03023258  0.57758153    -0.08000
C1052       C  0.86933920  0.50378322  0.54858159    -0.05400
C1053       C  0.91071947  0.48812752  0.54031320     0.00600
C1054       C  0.95991239  0.50578502  0.56142855    -0.07900
C1055       C  0.01695605  0.51119793  0.55135268     0.62500
H1056       H  0.99260103  0.53018910  0.60950947     0.13200
H1057       H  0.83266253  0.49255992  0.53212331     0.13200
C1058       C  0.82937315  0.05484053  0.58219981     0.62700
F1059       F  0.02432279  0.46848050  0.56353953    -0.22500
F1060       F  0.01936447  0.50871124  0.51899481    -0.19800
F1061       F  0.06302594  0.56457427  0.56245843    -0.19500
F1062       F  0.85872740  0.10792446  0.59913341    -0.19500
F1063       F  0.78043338  0.01693261  0.59770547    -0.19800
F1064       F  0.81043707  0.06332240  0.55336774    -0.22500
C1065       C  0.50042593  0.31610743  0.57043324    -0.05300
C1066       C  0.53801756  0.34220513  0.54549212     0.00600
C1067       C  0.59976964  0.37254469  0.55202048    -0.08000
C1068       C  0.62093872  0.37547998  0.58315349    -0.05400
C1069       C  0.58293501  0.35194789  0.60798720     0.00600
C1070       C  0.52150061  0.32255737  0.60174201    -0.07900
C1071       C  0.47594906  0.29980850  0.62681980     0.62500
H1072       H  0.95797217  0.29430095  0.56484634     0.13200
H1073       H  0.66790991  0.39721954  0.58860331     0.13200
C1074       C  0.64332547  0.40392002  0.52704962     0.62700
F1075       F  0.94158965  0.31675855  0.62239434    -0.22500
F1076       F  0.49995572  0.31166042  0.65736683    -0.19800
F1077       F  0.44019302  0.24066858  0.62143472    -0.19500
F1078       F  0.63384706  0.44601296  0.51578477    -0.19500
F1079       F  0.63671613  0.36515827  0.50242813    -0.19800
F1080       F  0.70103751  0.43071320  0.53895454    -0.22500
C1081       C  0.55111672  0.06207079  0.34072731    -0.05300
C1082       C  0.54399493  0.02588564  0.31388235     0.00600
C1083       C  0.52199084  0.46559142  0.31499949    -0.08000
C1084       C  0.51399847  0.44631940  0.34564428    -0.05400
C1085       C  0.52519970  0.48381028  0.37243832     0.00600
C1086       C  0.54090820  0.04168295  0.37124210    -0.07900
C1087       C  0.55054241  0.08296276  0.39955101     0.62500
H1088       H  0.56780078  0.10740077  0.33779147     0.13200
H1089       H  0.49700898  0.40085889  0.34862089     0.13200
C1090       C  0.50456541  0.42061282  0.28764366     0.62700
F1091       F  0.56982240  0.13838464  0.39079710    -0.22500
F1092       F  0.59248192  0.08521938  0.42054100    -0.19800
F1093       F  0.49863367  0.06482785  0.41459828    -0.19500
F1094       F  0.54289540  0.39986960  0.28764989    -0.19500
F1095       F  0.50431327  0.44170327  0.25861940    -0.19800
F1096       F  0.44845837  0.37526407  0.29136705    -0.22500
C1097       C  0.69184974  0.36816264  0.34842194    -0.05300
C1098       C  0.72647041  0.38334479  0.32193815     0.00600
C1099       C  0.78687497  0.40277639  0.32535953    -0.08000
C1100       C  0.81092175  0.40657817  0.35568373    -0.05400
C1101       C  0.77651101  0.38998536  0.38266231     0.00600
C1102       C  0.71556452  0.37101819  0.37893470    -0.07900
C1103       C  0.67514085  0.35332259  0.40640998     0.62500
H1104       H  0.64548478  0.35340260  0.34478114     0.13200
H1105       H  0.85745198  0.42171702  0.35813129     0.13200
C1106       C  0.82529466  0.41698271  0.29701515     0.62700
F1107       F  0.61887921  0.34027829  0.39727223    -0.22500
F1108       F  0.69679934  0.39808807  0.42962142    -0.19800
F1109       F  0.67093259  0.30481415  0.41869702    -0.19500
F1110       F  0.83030594  0.46470709  0.28345360    -0.19500
F1111       F  0.80073350  0.37052320  0.27478435    -0.19800
F1112       F  0.88152326  0.42915427  0.30541436    -0.22500
C1113       C  0.91657547  0.19236920  0.34830169    -0.05300
C1114       C  0.89052809  0.20325935  0.32242808     0.00600
C1115       C  0.87004345  0.24228268  0.32652070    -0.08000
C1116       C  0.88227262  0.27381418  0.35580334    -0.05400
C1117       C  0.91261856  0.26652609  0.38136883     0.00600
C1118       C  0.92662508  0.22215242  0.37809872    -0.07900
C1119       C  0.95133687  0.20535075  0.40551398     0.62500
H1120       H  0.93003239  0.16068028  0.34473841     0.13200
H1121       H  0.86903181  0.30571269  0.35847493     0.13200
C1122       C  0.83655695  0.25173314  0.30015384     0.62700
F1123       F  0.94967869  0.15378734  0.39843744    -0.22500
F1124       F  0.91833790  0.19826332  0.43167060    -0.19800
F1125       F  0.50748609  0.24628555  0.41348895    -0.19500
F1126       F  0.78118975  0.20359379  0.29485936    -0.19500
F1127       F  0.86646691  0.26217464  0.27258298    -0.19800
F1128       F  0.82918475  0.29812903  0.30775787    -0.22500
C1129       C  0.79136412  0.33847904  0.08032759    -0.05300
C1130       C  0.77198693  0.35439422  0.05352627     0.00600
C1131       C  0.72677650  0.36777194  0.05633619    -0.08000
C1132       C  0.70310612  0.36555971  0.08597680    -0.05400
C1133       C  0.72384655  0.35181486  0.11292481     0.00600
C1134       C  0.76849700  0.33776091  0.11031425    -0.07900
C1135       C  0.79369530  0.32510741  0.13928896     0.62500
H1136       H  0.82649276  0.32909556  0.07787002     0.13200
H1137       H  0.66896793  0.37632136  0.08861288     0.13200
C1138       C  0.70411376  0.38539757  0.02840295     0.62700
F1139       F  0.84112610  0.31864628  0.13221670    -0.22500
F1140       F  0.75119720  0.27490234  0.15147223    -0.19800
F1141       F  0.81269632  0.37000147  0.16224087    -0.19500
F1142       F  0.69288457  0.34787228  0.00225113    -0.19500
F1143       F  0.74564549  0.44080146  0.02152671    -0.19800
F1144       F  0.65241513  0.38459073  0.03467168    -0.22500
C1145       C  0.91657070  0.17315656  0.08425679    -0.05300
C1146       C  0.87410794  0.17172715  0.10454961     0.00600
C1147       C  0.83297989  0.18675819  0.09287505    -0.08000
C1148       C  0.84003328  0.20742245  0.06268113    -0.05400
C1149       C  0.88566913  0.21368726  0.04385635     0.00600
C1150       C  0.92291699  0.19353464  0.05389912    -0.07900
C1151       C  0.96953483  0.19434829  0.03311134     0.62500
H1152       H  0.94537529  0.15834155  0.09254450     0.13200
H1153       H  0.81017086  0.22036931  0.05353410     0.13200
C1154       C  0.78119488  0.18149247  0.11074955     0.62700
F1155       F  0.50139087  0.17454327  0.04718120    -0.22500
F1156       F  0.50649932  0.24977868  0.02408646    -0.19800
F1157       F  0.94269351  0.15930570  0.00585372    -0.19500
F1158       F  0.79643070  0.19780384  0.14250335    -0.19500
F1159       F  0.73455239  0.12539341  0.10677982    -0.19800
F1160       F  0.76151883  0.21611333  0.09911010    -0.22500
C1161       C  0.57842641  0.04523091  0.07840773    -0.05300
C1162       C  0.54621189  0.03320812  0.10579516     0.00600
C1163       C  0.48414698  0.00062460  0.10349238    -0.08000
C1164       C  0.95612433  0.48942318  0.06984842    -0.05400
C1165       C  0.48748258  0.48909157  0.04421547     0.00600
C1166       C  0.55012080  0.02492488  0.04821022    -0.07900
C1167       C  0.58590210  0.03702413  0.01910875     0.62500
H1168       H  0.62592078  0.07124414  0.08090461     0.13200
H1169       H  0.90891899  0.47115837  0.06668947     0.13200
C1170       C  0.44755430  0.98289754  0.13253627     0.62700
F1171       F  0.64576041  0.06647494  0.02687228    -0.22500
F1172       F  0.57396849  0.07027130  0.99995566    -0.19800
F1173       F  0.57160422  0.98574978  0.00252364    -0.19500
F1174       F  0.94948854  0.03040425  0.14847113    -0.19500
F1175       F  0.46760134  0.95656647  0.15234655    -0.19800
F1176       F  0.89419770  0.43954942  0.12276151    -0.22500
C1177       C  0.57738581  0.55729877  0.13467024     0.03600
C1178       C  0.61671204  0.54313571  0.14900230    -0.12600
C1179       C  0.65439431  0.57862831  0.17464386     0.01100
C1180       C  0.65582187  0.63092319  0.18153436    -0.11100
C1181       C  0.60527755  0.63438790  0.17549554     0.03600
C1182       C  0.56933730  0.60057447  0.14934538    -0.10500
H1183       H  0.61715782  0.50483685  0.14043666     0.09100
H1184       H  0.69492531  0.66748818  0.19225312     0.06700
H1185       H  0.53414827  0.60647254  0.14064466     0.06500
C1186       C  0.71486940  0.52411172  0.18181204     0.45900
H1187       H  0.71188596  0.51931889  0.15562237    -0.03100
C1188       C  0.71975013  0.53297946  0.24303655     0.45900
H1189       H  0.72096045  0.53656728  0.26920032    -0.03100
C1190       C  0.77865742  0.55462890  0.19620537    -0.16800
C1191       C  0.68762319  0.55937182  0.19542820    -0.16600
C1192       C  0.68041476  0.96466807  0.19718600    -0.17000
C1193       C  0.78127856  0.55925630  0.22929072    -0.16900
C1194       C  0.69016516  0.56368152  0.22829344    -0.16500
C1195       C  0.68507822  0.46984950  0.22936246    -0.16800
C1196       C  0.55682637  0.70096625  0.24417659     0.45900
H1197       H  0.55915456  0.70351142  0.27040795    -0.03100
C1198       C  0.55172748  0.69500867  0.18284584     0.45900
H1199       H  0.54914052  0.69299339  0.15665199    -0.03100
C1200       C  0.58464165  0.76079890  0.23016600    -0.16800
C1201       C  0.58833539  0.67070298  0.22967779    -0.16600
C1202       C  0.49320221  0.66664813  0.22995172    -0.17000
C1203       C  0.58221382  0.75738192  0.19720709    -0.16900
C1204       C  0.58682386  0.66861602  0.19673641    -0.16500
C1205       C  0.49040476  0.66360378  0.19708012    -0.16800
C1206       C  0.87757053  0.65949529  0.13761001     0.03600
C1207       C  0.93168222  0.67857450  0.15465285    -0.12600
C1208       C  0.93546385  0.64428173  0.17733909     0.01100
C1209       C  0.88457561  0.59121796  0.18102023    -0.11100
C1210       C  0.82980855  0.58603940  0.17536470     0.03600
C1211       C  0.82597257  0.61553289  0.15003927    -0.10500
H1212       H  0.97096626  0.71766911  0.14882948     0.09100
H1213       H  0.88744823  0.55553494  0.18909218     0.06700
H1214       H  0.78344864  0.60283701  0.13992687     0.03900
C1215       C  0.69257373  0.85741438  0.13989491     0.03600
C1216       C  0.70266705  0.91042968  0.15398727    -0.12600
C1217       C  0.66464879  0.91088439  0.17669168     0.01100
C1218       C  0.61357378  0.85810635  0.18056607    -0.11100
C1219       C  0.61533610  0.80714466  0.17660743     0.03600
C1220       C  0.65205363  0.80582167  0.15332963    -0.10500
H1221       H  0.73921491  0.95047566  0.14691167     0.09100
H1222       H  0.57448969  0.85700705  0.18821738     0.06700
H1223       H  0.64814513  0.76526188  0.14524282     0.06500
C1224       C  0.89103172  0.67274774  0.29110095     0.03600
C1225       C  0.83682094  0.62979158  0.27663013    -0.12600
C1226       C  0.83595992  0.59486616  0.25067746     0.01100
C1227       C  0.88929069  0.59736282  0.24523151    -0.11100
C1228       C  0.44144932  0.64899054  0.25049340     0.03600
C1229       C  0.44264487  0.68605527  0.27533760    -0.10500
H1230       H  0.79627206  0.62334780  0.28583514     0.09100
H1231       H  0.88944554  0.55964500  0.23600301     0.06700
H1232       H  0.48356396  0.72441700  0.28346117     0.06500
C1233       C  0.69506440  0.87567973  0.29101081     0.03600
C1234       C  0.70393910  0.92517514  0.27659778    -0.12600
C1235       C  0.66658021  0.91956772  0.25099484     0.01100
C1236       C  0.61600601  0.86522424  0.24509943    -0.11100
C1237       C  0.61816714  0.81564055  0.25100035     0.03600
C1238       C  0.65599892  0.82076104  0.27623657    -0.10500
H1239       H  0.73891942  0.96723411  0.28566351     0.09100
H1240       H  0.57641873  0.86144847  0.23521319     0.06700
H1241       H  0.65519508  0.78299755  0.28451459     0.06500
C1242       C  0.57261363  0.55317162  0.28217931     0.03600
C1243       C  0.61552019  0.54326697  0.26906796    -0.12600
C1244       C  0.65488576  0.58150691  0.24834528     0.01100
C1245       C  0.65591874  0.63376890  0.24599373    -0.11100
C1246       C  0.60363984  0.63463440  0.24939643     0.03600
C1247       C  0.56324723  0.59583307  0.26990622    -0.10500
H1248       H  0.61921186  0.50689267  0.27560897     0.09100
H1249       H  0.69500156  0.67161563  0.23936933     0.06700
H1250       H  0.52560758  0.59904968  0.27668487     0.06500
O1251       O  0.53107839  0.84701135  0.48847708    -0.80500
O1252       O  0.85574540  0.89578947  0.41054334    -0.65200
O1253       O  0.96728293  0.90016317  0.46789535    -1.11800
C1254       C  0.81665720  0.79162996  0.53102497     1.06400
O1255       O  0.77715550  0.87021424  0.43844841    -0.78400
O1256       O  0.84811016  0.92543850  0.49429187    -0.65900
Ni1257     Ni  0.52439914  0.88377918  0.45120215     1.34900
C1258       C  0.88883362  0.93723753  0.51517066     0.85200
O1259       O  0.96921416  0.95925528  0.41794082    -0.78900
O1260       O  0.52888754  0.92360924  0.41308172    -0.89200
C1261       C  0.80349565  0.88438853  0.41264636     0.84700
O1262       O  0.97050694  0.81416862  0.42957522    -0.67400
O1263       O  0.79528934  0.82118737  0.52070912    -0.86700
C1264       C  0.93266683  0.80875120  0.40861793     0.85600
C1265       C  0.50927235  0.95617776  0.40510028     1.07100
H1266       H  0.83648718  0.79980927  0.45013166     0.38900
O1267       O  0.85370461  0.83654167  0.46219906    -1.09300
O1268       O  0.91059372  0.90470637  0.51815491    -0.66000
Ni1269     Ni  0.91078245  0.84321788  0.49230699     1.26300
O1270       O  0.91167927  0.84214062  0.40934379    -0.66200
O1271       O  0.85440595  0.78545811  0.51643252    -0.78500
C1272       C  0.50767230  0.83850692  0.51529801     0.84900
O1273       O  0.96809724  0.85126403  0.52153290    -0.65700
Ni1274     Ni  0.79249453  0.84760660  0.47891110     1.27400
Ni1275     Ni  0.91114230  0.89801884  0.43932362     1.26100
H1276       H  0.98730230  0.93725906  0.47927822     0.39500
O1277       O  0.91625210  0.74495478  0.99173392    -0.80500
O1278       O  0.93058683  0.93754969  0.90772366    -0.65200
O1279       O  0.94977952  0.85464775  0.97047437    -1.11800
C1280       C  0.80376548  0.86776087  0.02199705     1.06400
O1281       O  0.90178758  0.99074717  0.93472677    -0.78400
O1282       O  0.94411744  0.98443990  0.99490206    -0.65900
Ni1283     Ni  0.95730366  0.78975464  0.95667811     1.34900
C1284       C  0.95351805  0.95992861  0.01733235     0.85200
O1285       O  0.01206431  0.91383787  0.91959888    -0.78900
O1286       O  0.00281198  0.82748370  0.92087202    -0.89200
C1287       C  0.91764177  0.97632077  0.90937775     0.84700
O1288       O  0.88613563  0.75297176  0.93053904    -0.67400
O1289       O  0.82991357  0.91770306  0.01127489    -0.86700
C1290       C  0.87403318  0.77719184  0.90910665     0.85600
C1291       C  0.02343122  0.87618973  0.90893882     1.07100
H1292       H  0.83642790  0.85716959  0.94477503     0.38900
O1293       O  0.87089869  0.88225590  0.95837788    -1.09300
O1294       O  0.92648595  0.90550259  0.01884900    -0.66000
Ni1295     Ni  0.87940708  0.83968880  0.99022874     1.26300
O1296       O  0.89620769  0.83150752  0.90926285    -0.66200
O1297       O  0.81004206  0.82688920  0.01045721    -0.78500
C1298       C  0.89918781  0.75677712  0.01741565     0.84900
O1299       O  0.88938971  0.79783783  0.02109942    -0.65700
Ni1300     Ni  0.86853106  0.95018113  0.97271707     1.27400
Ni1301     Ni  0.94132619  0.89731304  0.93880906     1.26100
H1302       H  0.98405589  0.88030032  0.98401095     0.39500
C1303       C  0.91829854  0.55974609  0.63520512     0.03600
C1304       C  0.86726052  0.54418750  0.65211340    -0.12600
C1305       C  0.86976211  0.58070416  0.67776397     0.01100
C1306       C  0.92302904  0.63259444  0.68349934    -0.11100
C1307       C  0.97553846  0.63406906  0.67740669     0.03600
C1308       C  0.97337554  0.60002823  0.65061104    -0.10500
H1309       H  0.82581114  0.00620206  0.64387108     0.09100
H1310       H  0.92366430  0.67054625  0.69300321     0.06700
H1311       H  0.01386143  0.60622937  0.64139892     0.06500
C1312       C  0.93171231  0.56630841  0.78943578     0.03600
C1313       C  0.98429397  0.60598949  0.77575298    -0.12600
C1314       C  0.98243873  0.64043677  0.75235003     0.01100
C1315       C  0.92932188  0.63966362  0.74795624    -0.11100
C1316       C  0.87632187  0.58865201  0.75211243     0.03600
C1317       C  0.87754330  0.55429927  0.77543091    -0.10500
H1318       H  0.52680221  0.61151446  0.78325313     0.09100
H1319       H  0.92916107  0.67678334  0.73995001     0.06700
H1320       H  0.83686927  0.51885273  0.78293022     0.06500
C1321       C  0.75482507  0.53017302  0.68420036     0.45900
H1322       H  0.75221236  0.52748075  0.65797411    -0.03100
C1323       C  0.76028092  0.53680151  0.74547055     0.45900
H1324       H  0.76288959  0.53951723  0.77164584    -0.03100
C1325       C  0.81852935  0.56424088  0.69842992    -0.16800
C1326       C  0.72389181  0.56100342  0.69865627    -0.16600
C1327       C  0.72478488  0.96931230  0.69701087    -0.17000
C1328       C  0.82152011  0.56841755  0.73137723    -0.16900
C1329       C  0.72546421  0.56333600  0.73155276    -0.16500
C1330       C  0.72863499  0.97337463  0.72991472    -0.16800
C1331       C  0.59240900  0.69826712  0.68460497     0.45900
H1332       H  0.59123627  0.69504561  0.65840227    -0.03100
C1333       C  0.59718032  0.70626243  0.74595722     0.45900
H1334       H  0.59931342  0.70966797  0.77218537    -0.03100
C1335       C  0.62544781  0.76134003  0.69857725    -0.16800
C1336       C  0.53084034  0.66989740  0.69840369    -0.16600
C1337       C  0.62367440  0.66911037  0.69935908    -0.17000
C1338       C  0.62814392  0.76568458  0.73152296    -0.16900
C1339       C  0.53357351  0.67403323  0.73149612    -0.16500
C1340       C  0.62588119  0.67297434  0.73217872    -0.16800
C1341       C  0.60601082  0.85315174  0.63952193     0.03600
C1342       C  0.64678909  0.90836199  0.65369708    -0.12600
C1343       C  0.68830976  0.91391951  0.67684679     0.01100
C1344       C  0.69085218  0.86410973  0.68169555    -0.11100
C1345       C  0.63920980  0.80998086  0.67766783     0.03600
C1346       C  0.59871365  0.80392936  0.65377820    -0.10500
H1347       H  0.64738644  0.94630078  0.64584049     0.09100
H1348       H  0.73142611  0.86766662  0.68975821     0.06700
H1349       H  0.56301596  0.76150137  0.64566742     0.06500
C1350       C  0.74240263  0.67986414  0.64667060     0.03600
C1351       C  0.75176139  0.63753315  0.65922013    -0.12600
C1352       C  0.71019185  0.59824750  0.67908427     0.01100
C1353       C  0.65794068  0.59941738  0.68186981    -0.11100
C1354       C  0.65970051  0.65207229  0.67968169     0.03600
C1355       C  0.70075848  0.69126640  0.65997636    -0.10500
H1356       H  0.78950407  0.63424745  0.65274719     0.09100
H1357       H  0.61844222  0.56170511  0.68823814     0.06700
H1358       H  0.69881276  0.72888492  0.65388934     0.06500
C1359       C  0.73415541  0.67491701  0.79389668     0.03600
C1360       C  0.74396749  0.63300970  0.77860323    -0.12600
C1361       C  0.70787566  0.59856305  0.75257381     0.01100
C1362       C  0.65737502  0.60185465  0.74644490    -0.11100
C1363       C  0.65920030  0.65433716  0.75299763     0.03600
C1364       C  0.69659135  0.69015742  0.77863002    -0.10500
H1365       H  0.77969292  0.62766083  0.78705091     0.09100
H1366       H  0.61847798  0.56540876  0.73546962     0.06700
H1367       H  0.69723063  0.72938975  0.78634370     0.06500
C1368       C  0.63036011  0.87685652  0.79198541     0.03600
C1369       C  0.66699219  0.92712383  0.77655010    -0.12600
C1370       C  0.69862722  0.92411506  0.75105162     0.01100
C1371       C  0.69862810  0.87235279  0.74605487    -0.11100
C1372       C  0.64790919  0.82042482  0.75188178     0.03600
C1373       C  0.61452070  0.82291685  0.77666864    -0.10500
H1374       H  0.67107796  0.96777495  0.78467308     0.09100
H1375       H  0.73604708  0.87217136  0.73674642     0.06700
H1376       H  0.57735582  0.78390508  0.78427911     0.06500
C1377       C  0.77598820  0.72435193  0.88112886    -0.05300
C1378       C  0.83614164  0.74285341  0.88130022     0.00600
C1379       C  0.86113157  0.73879870  0.85277505    -0.08000
C1380       C  0.82796023  0.72550880  0.82448830    -0.05400
C1381       C  0.76746207  0.70434944  0.82403916     0.00600
C1382       C  0.74003664  0.70118048  0.85304462    -0.07900
C1383       C  0.67358845  0.67119946  0.85472211     0.62500
H1384       H  0.75736590  0.72735560  0.90318353     0.13200
H1385       H  0.84850227  0.72599800  0.80248896     0.13200
C1386       C  0.92030345  0.74305396  0.85058334     0.62700
F1387       F  0.65671847  0.66969867  0.88554226    -0.22500
F1388       F  0.64798946  0.61494588  0.84196942    -0.19800
F1389       F  0.65211592  0.69977074  0.83808261    -0.19500
F1390       F  0.94568185  0.74563740  0.87965085    -0.19500
F1391       F  0.95759759  0.79089843  0.83476589    -0.19800
F1392       F  0.91295292  0.69428623  0.83375442    -0.22500
C1393       C  0.57731238  0.91068690  0.82564660    -0.05300
C1394       C  0.60802284  0.88123589  0.82309502     0.00600
C1395       C  0.61985886  0.85981425  0.85043129    -0.08000
C1396       C  0.59497911  0.86345722  0.87877163    -0.05400
C1397       C  0.55968355  0.88847121  0.88080647     0.00600
C1398       C  0.05116741  0.91232722  0.85345201    -0.07900
C1399       C  0.01283296  0.93913892  0.85302584     0.62500
H1400       H  0.57048662  0.92816386  0.80460486     0.13200
H1401       H  0.60100136  0.84452124  0.89940545     0.13200
C1402       C  0.65826922  0.83292278  0.84986664     0.62700
F1403       F  0.01191284  0.96092351  0.82426439    -0.22500
F1404       F  0.03371874  0.98442623  0.87584161    -0.19800
F1405       F  0.95592108  0.89714574  0.85831609    -0.19500
F1406       F  0.71088052  0.86905209  0.83649449    -0.19500
F1407       F  0.62929360  0.78062246  0.83248864    -0.19800
F1408       F  0.67113183  0.82315977  0.87991951    -0.22500
C1409       C  0.88643651  0.45951722  0.85249449    -0.05300
C1410       C  0.91476675  0.49644407  0.87959634     0.00600
C1411       C  0.95361991  0.55591571  0.87649089    -0.08000
C1412       C  0.96097700  0.57681363  0.84609801    -0.05400
C1413       C  0.93218326  0.53962658  0.81900879     0.00600
C1414       C  0.89646758  0.47957570  0.82213137    -0.07900
C1415       C  0.86962039  0.43483842  0.79433525     0.62500
H1416       H  0.86174116  0.91736963  0.85691263     0.13200
H1417       H  0.98792591  0.62270607  0.84335962     0.13200
C1418       C  0.98726141  0.59660107  0.90504159     0.62700
F1419       F  0.88011568  0.39029268  0.79902654    -0.22500
F1420       F  0.89305116  0.45709056  0.76598034    -0.19800
F1421       F  0.80953064  0.41254544  0.79215817    -0.19500
F1422       F  0.02000563  0.57734624  0.92050981    -0.19500
F1423       F  0.95858840  0.10850112  0.92296315    -0.19800
F1424       F  0.02541865  0.65210780  0.89664478    -0.22500
C1425       C  0.80348541  0.76699979  0.61853529    -0.05300
C1426       C  0.76849131  0.70687026  0.61734339     0.00600
C1427       C  0.74839174  0.67478370  0.58770772    -0.08000
C1428       C  0.76536352  0.70433817  0.56001378    -0.05400
C1429       C  0.79894872  0.76456001  0.56120779     0.00600
C1430       C  0.81901891  0.79670562  0.59082833    -0.07900
C1431       C  0.85680030  0.86184196  0.59326553     0.62500
H1432       H  0.81688069  0.79050737  0.64149075     0.13200
H1433       H  0.75123135  0.68074755  0.53708611     0.13200
C1434       C  0.70555197  0.61018508  0.58541731     0.62700
F1435       F  0.87146065  0.88433139  0.62433128    -0.22500
F1436       F  0.82654153  0.88503925  0.57926642    -0.19800
F1437       F  0.90840828  0.87814539  0.57832618    -0.19500
F1438       F  0.65633363  0.59873356  0.60165448    -0.19500
F1439       F  0.73134211  0.58199679  0.59851177    -0.19800
F1440       F  0.68769580  0.58814111  0.55444061    -0.22500
C1441       C  0.95671644  0.02583047  0.59134707    -0.05300
C1442       C  0.91453536  0.53589886  0.60204392     0.00600
C1443       C  0.87279068  0.53118687  0.57835220    -0.08000
C1444       C  0.86417460  0.00007495  0.54846538    -0.05400
C1445       C  0.90580645  0.98475884  0.54010407     0.00600
C1446       C  0.95671713  0.00535409  0.56034570    -0.07900
C1447       C  0.01354499  0.01162253  0.54923029     0.62500
H1448       H  0.99269719  0.03456989  0.60768862     0.13200
H1449       H  0.82629193  0.98697350  0.53255973     0.13200
C1450       C  0.83186115  0.55474967  0.58326242     0.62700
F1451       F  0.02142064  0.96831960  0.56004455    -0.22500
F1452       F  0.01448145  0.01071882  0.51677907    -0.19800
F1453       F  0.06011042  0.06457659  0.56062157    -0.19500
F1454       F  0.85926282  0.60594248  0.60195475    -0.19500
F1455       F  0.78162356  0.51445569  0.59697340    -0.19800
F1456       F  0.81528491  0.56646085  0.55467637    -0.22500
C1457       C  0.49975980  0.79995527  0.56744157    -0.05300
C1458       C  0.53703130  0.83390130  0.54420680     0.00600
C1459       C  0.59726991  0.87277575  0.55255820    -0.08000
C1460       C  0.61724321  0.87739766  0.58409204    -0.05400
C1461       C  0.57876624  0.84723436  0.60773502     0.00600
C1462       C  0.51852928  0.80850116  0.59940208    -0.07900
C1463       C  0.47137530  0.77895002  0.62307963     0.62500
H1464       H  0.95600113  0.77789147  0.56110217     0.13200
H1465       H  0.66347130  0.90571302  0.59073815     0.13200
C1466       C  0.63977754  0.91152982  0.52900825     0.62700
F1467       F  0.92589412  0.78355425  0.61527518    -0.22500
F1468       F  0.49104882  0.80033069  0.65391297    -0.19800
F1469       F  0.45077845  0.72032059  0.62080553    -0.19500
F1470       F  0.62179559  0.94823055  0.51849664    -0.19500
F1471       F  0.64157945  0.87828527  0.50364315    -0.19800
F1472       F  0.69642648  0.94508994  0.54222992    -0.22500
C1473       C  0.55405412  0.56222676  0.33801092    -0.05300
C1474       C  0.54500252  0.52516302  0.31130056     0.00600
C1475       C  0.52243661  0.96652160  0.31735893    -0.08000
C1476       C  0.51558709  0.94695469  0.34784910    -0.05400
C1477       C  0.52488629  0.98349127  0.37475082     0.00600
C1478       C  0.54431175  0.54263870  0.36864929    -0.07900
C1479       C  0.55813718  0.58547665  0.39677768     0.62500
H1480       H  0.57224691  0.60772204  0.33484157     0.13200
H1481       H  0.50025716  0.90172529  0.35058797     0.13200
C1482       C  0.50495801  0.92200152  0.28981155     0.62700
F1483       F  0.58067955  0.64123319  0.38768075    -0.22500
F1484       F  0.59944855  0.58510389  0.41712791    -0.19800
F1485       F  0.50774454  0.57110496  0.41261033    -0.19500
F1486       F  0.54519487  0.90365780  0.28828034    -0.19500
F1487       F  0.50104806  0.94272996  0.26124331    -0.19800
F1488       F  0.45044058  0.87507263  0.29445688    -0.22500
C1489       C  0.68988761  0.86724524  0.34848626    -0.05300
C1490       C  0.72424920  0.88109174  0.32192367     0.00600
C1491       C  0.78436437  0.89936489  0.32530253    -0.08000
C1492       C  0.80815046  0.90203944  0.35555493    -0.05400
C1493       C  0.77383315  0.88630386  0.38260672     0.00600
C1494       C  0.71345909  0.86970515  0.37900047    -0.07900
C1495       C  0.67351211  0.85424473  0.40662974     0.62500
H1496       H  0.64385709  0.85389337  0.34491638     0.13200
H1497       H  0.85439711  0.91590720  0.35789714     0.13200
C1498       C  0.82283694  0.91448944  0.29696723     0.62700
F1499       F  0.61801261  0.84353874  0.39761418    -0.22500
F1500       F  0.69719174  0.89951523  0.42959251    -0.19800
F1501       F  0.66700556  0.80503117  0.41917951    -0.19500
F1502       F  0.82969899  0.96412117  0.28491950    -0.19500
F1503       F  0.79713256  0.86976939  0.27370154    -0.19800
F1504       F  0.87830366  0.92409072  0.30490737    -0.22500
C1505       C  0.91815803  0.69099160  0.34812398    -0.05300
C1506       C  0.89388592  0.70263968  0.32178130     0.00600
C1507       C  0.87637182  0.74401173  0.32488580    -0.08000
C1508       C  0.88840175  0.77605572  0.35398545    -0.05400
C1509       C  0.91569216  0.76697490  0.38033877     0.00600
C1510       C  0.92847908  0.72162001  0.37769314    -0.07900
C1511       C  0.95220037  0.70467448  0.40554202     0.62500
H1512       H  0.92998472  0.65802311  0.34508284     0.13200
H1513       H  0.87728409  0.80957049  0.35594771     0.13200
C1514       C  0.84594261  0.75491676  0.29753761     0.62700
F1515       F  0.95224631  0.65393139  0.39854991    -0.22500
F1516       F  0.91737268  0.69617734  0.43102531    -0.19800
F1517       F  0.50901168  0.74643622  0.41261723    -0.19500
F1518       F  0.79011311  0.70790973  0.29135676    -0.19500
F1519       F  0.87775281  0.76432826  0.27068884    -0.19800
F1520       F  0.84003886  0.80240893  0.30430191    -0.22500
C1521       C  0.78865575  0.84322265  0.07801940    -0.05300
C1522       C  0.77051114  0.85977770  0.05102290     0.00600
C1523       C  0.72607051  0.87436922  0.05341570    -0.08000
C1524       C  0.70153903  0.87208779  0.08287698    -0.05400
C1525       C  0.72024483  0.85643016  0.10988666     0.00600
C1526       C  0.76480389  0.84219358  0.10771646    -0.07900
C1527       C  0.78907256  0.82924131  0.13697969     0.62500
H1528       H  0.82356080  0.83342906  0.07594754     0.13200
H1529       H  0.66748122  0.88301252  0.08520568     0.13200
C1530       C  0.70331552  0.89061380  0.02484303     0.62700
F1531       F  0.83759995  0.82423386  0.13059309    -0.22500
F1532       F  0.74662402  0.77820905  0.14841993    -0.19800
F1533       F  0.80606560  0.87323785  0.16031011    -0.19500
F1534       F  0.68381818  0.84699992  0.00106311    -0.19500
F1535       F  0.74732060  0.94144534  0.01392875    -0.19800
F1536       F  0.65691176  0.89869105  0.03195330    -0.22500
C1537       C  0.92415476  0.68763189  0.08659126    -0.05300
C1538       C  0.87777606  0.68040446  0.10561856     0.00600
C1539       C  0.83440785  0.69159376  0.09291499    -0.08000
C1540       C  0.84073536  0.71079239  0.06234441    -0.05400
C1541       C  0.88953935  0.72230823  0.04482899     0.00600
C1542       C  0.93181980  0.70991313  0.05675623    -0.07900
C1543       C  0.98624690  0.72288393  0.03898310     0.62500
H1544       H  0.95551278  0.67648701  0.09553883     0.13200
H1545       H  0.80826822  0.71948363  0.05217037     0.13200
C1546       C  0.78173026  0.68516571  0.11030753     0.62700
F1547       F  0.52389512  0.71129560  0.05550354    -0.22500
F1548       F  0.51777906  0.78175774  0.03324745    -0.19800
F1549       F  0.96985029  0.69057489  0.01037305    -0.19500
F1550       F  0.79557252  0.70042310  0.14224924    -0.19500
F1551       F  0.73537911  0.62901548  0.10556660    -0.19800
F1552       F  0.76256672  0.72024794  0.09875017    -0.22500
C1553       C  0.57649258  0.53156896  0.07789570    -0.05300
C1554       C  0.54419762  0.52775927  0.10464530     0.00600
C1555       C  0.48254672  0.50390805  0.10102710    -0.08000
C1556       C  0.95619378  0.98197589  0.07340214    -0.05400
C1557       C  0.48804830  0.99295728  0.04597865     0.00600
C1558       C  0.54869358  0.51169520  0.04751194    -0.07900
C1559       C  0.58383503  0.51488207  0.01907964     0.62500
H1560       H  0.62372851  0.55085613  0.08095134     0.13200
H1561       H  0.90862102  0.95613896  0.07093759     0.13200
C1562       C  0.44210601  0.49245814  0.12812988     0.62700
F1563       F  0.64349181  0.54190921  0.02695041    -0.22500
F1564       F  0.57522486  0.54560083  0.99652827    -0.19800
F1565       F  0.56559573  0.45990758  0.00632868    -0.19500
F1566       F  0.92081866  0.53304008  0.12674699    -0.19500
F1567       F  0.46884582  0.49791413  0.15743228    -0.19800
F1568       F  0.88902729  0.94461661  0.12426830    -0.22500
loop_ 
_geom_bond_atom_site_label_1 
_geom_bond_atom_site_label_2 
_geom_bond_distance 
_geom_bond_site_symmetry_2 
_ccdc_geom_bond_type 
C1            C2   1.410       .  A
C1            C6   1.398       .  A
C1          C378   1.465       .  S
C2            C3   1.407       .  A
C2            H7   1.082       .  S
C3            C4   1.406       .  A
C3           C15   1.512       .  S
C4            C5   1.404       .  A
C4            H8   1.072       .  S
C5            C6   1.392       .  A
C5           C28   1.511       .  S
C6            H9   1.078       .  S
C10          H11   1.107       .  S
C10          C15   1.551       .  S
C10          C14   1.550       .  S
C10         C408   1.541   1_545  S
C12          H13   1.108       .  S
C12          C18   1.542       .  S
C12          C17   1.546       .  S
C12          C19   1.543   1_545  S
C14          C34   1.511       .  S
C14          C17   1.399       .  D
C15          C18   1.390       .  D
C16          C41   1.505       .  S
C16         C402   1.545       .  S
C16         C411   1.393       .  D
C17          C50   1.512       .  S
C18          C68   1.509       .  S
C19         C451   1.508       .  S
C19         C408   1.394       .  D
C20          H21   1.110       .  S
C20          C26   1.544   1_455  S
C20          C25   1.551       .  S
C20          C24   1.553       .  S
C22          H23   1.107       .  S
C22          C28   1.549       .  S
C22          C27   1.527       .  S
C22          C29   1.549   1_455  S
C24          C61   1.501       .  S
C24          C27   1.391       .  D
C25          C70   1.511       .  S
C25          C28   1.395       .  D
C26          C52   1.515       .  S
C26          C29   1.394       .  D
C27          C43   1.508       .  S
C29         C816   1.508       .  S
C30          C31   1.420       .  A
C30          C35   1.406       .  A
C30         C362   1.492       .  S
C31          C32   1.408       .  A
C31          H36   1.083       .  S
C32          C33   1.399       .  A
C32         C813   1.510       .  S
C33          C34   1.395       .  A
C33          H37   1.073       .  S
C34          C35   1.396       .  A
C35          H38   1.064       .  S
C39          C40   1.411       .  A
C39          C44   1.410       .  A
C39         C349   1.483       .  S
C40          C41   1.406       .  A
C40          H45   1.083       .  S
C41          C42   1.398       .  A
C42          C43   1.400       .  A
C42          H46   1.075       .  S
C43          C44   1.408       .  A
C44          H47   1.081       .  S
C48          C49   1.407       .  A
C48         C837   1.412       .  A
C48         C330   1.478       .  S
C49          C50   1.403       .  A
C49          H54   1.077       .  S
C50          C51   1.399       .  A
C51         C836   1.401       .  A
C51          H55   1.073       .  S
C52          C53   1.406       .  A
C52         C835   1.402       .  A
C53         C832   1.413       .  A
C53          H56   1.083       .  S
C57          C58   1.405       .  A
C57          C62   1.406       .  A
C57         C314   1.468       .  S
C58          C59   1.402       .  A
C58          H63   1.081       .  S
C59          C60   1.401       .  A
C59         C411   1.510       .  S
C60          C61   1.402       .  A
C60          H64   1.073       .  S
C61          C62   1.400       .  A
C62          H65   1.083       .  S
C66          C67   1.408       .  A
C66          C71   1.412       .  A
C66         C298   1.480       .  S
C67          C68   1.396       .  A
C67          H72   1.081       .  S
C68          C69   1.405       .  A
C69          C70   1.405       .  A
C69          H73   1.075       .  S
C70          C71   1.407       .  A
C71          H74   1.083       .  S
O75         Ni81   1.969       .  S
O75          C96   1.282       .  A
O76         Ni99   1.863       .  S
O76          C85   1.260       .  A
O77         Ni99   1.874       .  S
O77         Ni93   1.901       .  S
O77        Ni865   1.916       .  S
O77         H100   0.965       .  S
C78         C253   1.482       .  S
C78          O95   1.263       .  A
C78          O87   1.276       .  A
O79         Ni98   1.948       .  S
O79          C85   1.276       .  A
O80         Ni98   1.920       .  S
O80          C82   1.278       .  A
Ni81         O84   1.963       .  S
Ni81        O870   1.920   1_455  S
Ni81        O861   1.915   1_455  S
C82         C269   1.490       .  S
C82          O92   1.275       .  A
O83         Ni99   1.891       .  S
O83         C873   1.262       .  A
O84          C89   1.281       .  A
C85         C317   1.497       .  S
O86        Ni865   1.920       .  S
O86          C88   1.276       .  A
O87         Ni98   1.961       .  S
C88         C333   1.497       .  S
C88          O94   1.275       .  A
C89         C301   1.476       .  S
C89         O867   1.263   1_455  A
H90          O91   0.966       .  S
O91         Ni99   1.912       .  S
O91         Ni93   1.878       .  S
O91         Ni98   1.920       .  S
O92         Ni93   1.936       .  S
Ni93         O97   1.850       .  S
Ni93         O95   1.899       .  S
O94         Ni99   1.928       .  S
C96         C282   1.487       .  S
C96         O881   1.258   1_455  A
O97         C880   1.258       .  A
O101       Ni107   1.942       .  S
O101        C122   1.274   1_556  A
O102       Ni125   1.864       .  S
O102        C111   1.255       .  A
O103       Ni107   1.924       .  S
O103       Ni125   1.888       .  S
O103       Ni119   1.903       .  S
O103        H126   0.965       .  S
C104        C346   1.486       .  S
C104        O121   1.270       .  A
C104        O113   1.274       .  A
O105       Ni124   1.951       .  S
O105        C111   1.273       .  A
O106       Ni124   1.918       .  S
O106        C108   1.274   1_556  A
Ni107       O110   1.943       .  S
Ni107       O112   1.911       .  S
C108       C1165   1.462       .  S
C108        O118   1.271       .  A
O109       Ni125   1.893       .  S
O109        C115   1.262       .  A
O110        C115   1.276       .  A
C111        C626   1.475       .  S
O112        C114   1.270       .  A
O113       Ni124   1.944   1_554  S
C114        C202   1.466       .  S
C114        O120   1.271       .  A
C115       C1005   1.485       .  S
H116        O117   0.968       .  S
O117       Ni125   1.913       .  S
O117       Ni119   1.903       .  S
O117       Ni124   1.936       .  S
O118       Ni119   1.919   1_554  S
Ni119       O123   1.872   1_556  S
Ni119       O121   1.912   1_556  S
O120       Ni125   1.927       .  S
C122        C365   1.473       .  S
C122        O123   1.263       .  A
C127        C128   1.416       .  A
C127        C132   1.419       .  A
C127        C266   1.499       .  S
C128        C129   1.407       .  A
C128        H525   1.081       .  S
C129        C130   1.399       .  A
C129        C149   1.511       .  S
C130        C131   1.398       .  A
C130        H134   1.072       .  S
C131        C132   1.409       .  A
C131        C944   1.518       .  S
C132        H135   1.080       .  S
H133        C520   1.081       .  S
C136        C137   1.411       .  A
C136        C141   1.410       .  A
C136        C237   1.480       .  S
C137        C138   1.408       .  A
C137        H926   1.083       .  S
C138        C139   1.400       .  A
C138        C947   1.508       .  S
C139        C140   1.400       .  A
C139        H143   1.074       .  S
C140        C141   1.402       .  A
C140        C152   1.507       .  S
C141        H144   1.082       .  S
H142        C921   1.083   1_455  S
C145        H146   1.110       .  S
C145        C150   1.548       .  S
C145        C149   1.546       .  S
C145        C543   1.554   1_545  S
C147        H148   1.108       .  S
C147        C153   1.549       .  S
C147        C152   1.544       .  S
C147        C546   1.534   1_545  S
C149        C152   1.395       .  D
C150        C176   1.512       .  S
C150        C153   1.392       .  D
C151        C167   1.506       .  S
C151        C537   1.548       .  S
C151        C154   1.393       .  D
C153        C185   1.508       .  S
C154        C194   1.510       .  S
C154        C539   1.542       .  S
C155        H156   1.108       .  S
C155        C161   1.544       .  S
C155        C160   1.545       .  S
C155        C159   1.544       .  S
C157        H158   1.110       .  S
C157        C163   1.547       .  S
C157        C162   1.550       .  S
C157        C164   1.543       .  S
C159        C169   1.513       .  S
C159        C162   1.396       .  D
C160        C915   1.516   1_455  S
C160        C163   1.399       .  D
C161        C178   1.503       .  S
C161        C164   1.389       .  D
C162        C196   1.513       .  S
C163        C922   1.508   1_455  S
C164        C187   1.507       .  S
C165        C166   1.406       .  A
C165        C170   1.409       .  A
C165        C285   1.469       .  S
C166        C167   1.400       .  A
C166        H171   1.083       .  S
C167        C168   1.403       .  A
C168        C169   1.402       .  A
C168        H172   1.073       .  S
C169        C170   1.403       .  A
C170        H173   1.082       .  S
C174        C175   1.412       .  A
C174        C179   1.403       .  A
C174        C250   1.477       .  S
C175        C176   1.409       .  A
C175        H180   1.083       .  S
C176        C177   1.406       .  A
C177        C178   1.406       .  A
C177        H181   1.075       .  S
C178        C179   1.395       .  A
C179        H182   1.083       .  S
C183        C184   1.406       .  A
C183        C188   1.409       .  A
C183        C205   1.476       .  S
C184        C185   1.393       .  A
C184        H189   1.081       .  S
C185        C186   1.403       .  A
C186        C187   1.405       .  A
C186        H190   1.073       .  S
C187        C188   1.407       .  A
C188        H191   1.082       .  S
C192        C193   1.407       .  A
C192        C197   1.411       .  A
C192        C218   1.473       .  S
C193        C194   1.402       .  A
C193        H198   1.082       .  S
C194        C195   1.403       .  A
C195        C196   1.401       .  A
C195        H199   1.072       .  S
C196        C197   1.405       .  A
C197        H200   1.083       .  S
C201        C202   1.401       .  A
C201        C206   1.409       .  A
C201        H208   1.083       .  S
C202        C203   1.415       .  A
C203        C204   1.393       .  A
C203        C210   1.515       .  S
C204        C205   1.399       .  A
C204        H209   1.085       .  S
C205        C206   1.422       .  A
C206        C207   1.521       .  S
C207        F211   1.384       .  S
C207        F212   1.384       .  S
C207        F213   1.378       .  S
C210        F214   1.378       .  S
C210        F215   1.378       .  S
C210        F216   1.386       .  S
C217        C218   1.393       .  A
C217       C1006   1.402       .  A
C217        H224   1.083       .  S
C218        C219   1.416       .  A
C219        C220   1.404       .  A
C219        C226   1.518       .  S
C220        C221   1.403       .  A
C220        H225   1.083       .  S
C221       C1006   1.428       .  A
C221        C899   1.485       .  S
C222       C1001   1.401       .  A
C222       C1005   1.429       .  A
C222        C223   1.515       .  S
C223        F227   1.385       .  S
C223        F228   1.382       .  S
C223        F229   1.380       .  S
C226        F230   1.383       .  S
C226        F231   1.378       .  S
C226        F232   1.385       .  S
C233        C234   1.406   1_565  A
C233        C238   1.399       .  A
C233        H632   1.086       .  S
C234        C235   1.412       .  A
C234        C503   1.473   1_545  S
C235        C236   1.409       .  A
C235        C242   1.516       .  S
C236        C237   1.410       .  A
C236        H241   1.083       .  S
C237        C238   1.414   1_545  A
C238        C239   1.519       .  S
C239        F243   1.385       .  S
C239        F244   1.383       .  S
C239        F245   1.382       .  S
H240        C625   1.085       .  S
C242        F246   1.384       .  S
C242        F248   1.385       .  S
C242        F639   1.382       .  S
F247        C634   1.383       .  S
C249        C250   1.399       .  A
C249        C254   1.404       .  A
C249        H256   1.083       .  S
C250        C251   1.418       .  A
C251        C252   1.407       .  A
C251        C258   1.519       .  S
C252        C253   1.401       .  A
C252        H257   1.083       .  S
C253        C254   1.421       .  A
C254        C255   1.512       .  S
C255        F259   1.385       .  S
C255        F260   1.381       .  S
C255        F261   1.377       .  S
C258        F262   1.382       .  S
C258        F263   1.377       .  S
C258        F264   1.384       .  S
C265        C270   1.407       .  A
C265        C658   1.406       .  A
C265        H272   1.082       .  S
C266        C267   1.425       .  A
C266        C657   1.403       .  A
C267        C660   1.407   1_545  A
C267        C274   1.516       .  S
C268        C269   1.399       .  A
C268        C659   1.406       .  A
C268        H273   1.083       .  S
C269        C270   1.419       .  A
C270        C271   1.515       .  S
C271        F275   1.377       .  S
C271        F276   1.382       .  S
C271        F277   1.378       .  S
C274        F278   1.384       .  S
C274        F279   1.381       .  S
C274        F280   1.386       .  S
C281        C282   1.415       .  A
C281        C286   1.399       .  A
C281       H1072   1.085   1_455  S
C282        C283   1.417       .  A
C283        C284   1.407       .  A
C283        C290   1.518       .  S
C284        C285   1.407       .  A
C284        H289   1.084       .  S
C285        C286   1.410       .  A
C286        C287   1.523   1_455  S
C287        F292   1.382   1_655  S
C287        F293   1.383       .  S
C287       F1075   1.382       .  S
H288       C1065   1.085       .  S
C290        F294   1.383       .  S
C290        F295   1.383       .  S
C290        F296   1.385       .  S
F291       C1071   1.384       .  S
C297        C298   1.406       .  A
C297        C302   1.406       .  A
C297        H304   1.083       .  S
C298        C691   1.416   1_545  A
C299        C300   1.405       .  A
C299        C690   1.418       .  A
C299        C306   1.518       .  S
C300        C301   1.404       .  A
C300        H305   1.085   1_455  S
C301        C694   1.417       .  A
C302        C693   1.417   1_545  A
C302        C303   1.521       .  S
C303        F307   1.385       .  S
C303        F308   1.383       .  S
C303        F309   1.382   1_455  S
C306        F310   1.382       .  S
C306        F311   1.383       .  S
C306        F312   1.380   1_455  S
C313        C314   1.402       .  A
C313        C318   1.407       .  A
C313        H320   1.084       .  S
C314        C315   1.405       .  A
C315        C316   1.400       .  A
C315        C322   1.523       .  S
C316        C317   1.419       .  A
C316        H321   1.082       .  S
C317        C318   1.424       .  A
C318        C319   1.521       .  S
C319        F323   1.384       .  S
C319        F324   1.383       .  S
C319        F325   1.384       .  S
C322        F326   1.380       .  S
C322        F327   1.383       .  S
C322        F328   1.384       .  S
C329        C330   1.404       .  A
C329        C334   1.409       .  A
C329        H336   1.084       .  S
C330        C331   1.410       .  A
C331        C332   1.404       .  A
C331        C338   1.522       .  S
C332        C333   1.416       .  A
C332        H337   1.082       .  S
C333        C334   1.421       .  A
C334        C335   1.519       .  S
C335        F339   1.385       .  S
C335        F340   1.384       .  S
C335       F1125   1.382       .  S
C338        F342   1.381       .  S
C338        F343   1.383       .  S
C338        F344   1.383       .  S
F341       C1119   1.382   1_455  S
C345        C346   1.410       .  A
C345        C350   1.415       .  A
C345        H352   1.083       .  S
C346        C347   1.417       .  A
C347        C348   1.405       .  A
C347        C354   1.518       .  S
C348        C349   1.403       .  A
C348        H353   1.084       .  S
C349        C350   1.414       .  A
C350        C351   1.521       .  S
C351        F355   1.385       .  S
C351        F356   1.381       .  S
C351        F357   1.383       .  S
C354        F358   1.383       .  S
C354        F359   1.383       .  S
C354        F360   1.385       .  S
C361        C362   1.412       .  A
C361        C366   1.405       .  A
C361        H368   1.083       .  S
C362        C363   1.428       .  A
C363        C364   1.400       .  A
C363        C370   1.523       .  S
C364        C365   1.400       .  A
C364        H369   1.084       .  S
C365        C366   1.411       .  A
C366        C367   1.519       .  S
C367        F373   1.384       .  S
C367       F1155   1.385       .  S
C367       F1156   1.383       .  S
C370        F374   1.383       .  S
C370        F375   1.382       .  S
C370        F376   1.383       .  S
F371       C1151   1.385   1_455  S
F372       C1151   1.383   1_455  S
C377        C378   1.404       .  A
C377        C382   1.406       .  A
C377        H384   1.082       .  S
C378        C379   1.411   1_455  A
C379       C1556   1.397   1_545  A
C379        C386   1.521   1_545  S
C380       C1555   1.396       .  A
C380       C1165   1.398       .  A
C380        H385   1.086       .  S
C381       C1164   1.398       .  A
C381        C774   1.410   1_655  A
C381        C892   1.462       .  S
C382        C773   1.412   1_445  A
C382        C383   1.515       .  S
C383        F387   1.386       .  S
C383        F388   1.382   1_554  S
C383        F389   1.382   1_545  S
C386        F391   1.383       .  S
C386       F1174   1.379   1_565  S
C386       F1568   1.378       .  S
F390       C1170   1.379   1_545  S
F392       C1562   1.378       .  S
C393        C394   1.412       .  A
C393        C398   1.406       .  A
C393        C770   1.475       .  S
C394        C395   1.407       .  A
C394        H399   1.083       .  S
C395        C396   1.406       .  A
C395        C407   1.515       .  S
C396        C397   1.404       .  A
C396        H400   1.072       .  S
C397        C398   1.395       .  A
C397        C420   1.513       .  S
C398        H401   1.080       .  S
C402        H403   1.109       .  S
C402        C407   1.552       .  S
C402        C406   1.549       .  S
C404        H405   1.108       .  S
C404        C410   1.539       .  S
C404        C409   1.546       .  S
C404        C411   1.539       .  S
C406        C426   1.512       .  S
C406        C409   1.400       .  D
C407        C410   1.390       .  D
C408        C433   1.510       .  S
C409        C442   1.512       .  S
C410        C460   1.503       .  S
C412        H413   1.110       .  S
C412        C418   1.541   1_455  S
C412        C417   1.547       .  S
C412        C416   1.550       .  S
C414        H415   1.109       .  S
C414        C420   1.549       .  S
C414        C419   1.532       .  S
C414        C421   1.549   1_455  S
C416        C453   1.503       .  S
C416        C419   1.394       .  D
C417        C462   1.507       .  S
C417        C420   1.395       .  D
C418        C444   1.511       .  S
C418        C421   1.392       .  D
C419        C435   1.510       .  S
C421       C1208   1.502       .  S
C422        C423   1.418       .  A
C422        C427   1.410       .  A
C422        C754   1.494       .  S
C423        C424   1.403       .  A
C423        H428   1.083       .  S
C424        C425   1.400       .  A
C424       C1205   1.504       .  S
C425        C426   1.396       .  A
C425        H429   1.074       .  S
C426        C427   1.399       .  A
C427        H430   1.067       .  S
C431        C432   1.411       .  A
C431        C436   1.412       .  A
C431        C741   1.485       .  S
C432        C433   1.408       .  A
C432        H437   1.083       .  S
C433        C434   1.399       .  A
C434        C435   1.400       .  A
C434        H438   1.074       .  S
C435        C436   1.408       .  A
C436        H439   1.081       .  S
C440        C441   1.407       .  A
C440       C1229   1.410       .  A
C440        C722   1.475       .  S
C441        C442   1.404       .  A
C441        H446   1.078       .  S
C442        C443   1.399       .  A
C443       C1228   1.401       .  A
C443        H447   1.073       .  S
C444       C1227   1.402       .  A
C444        C445   1.404       .  A
C445       C1224   1.411       .  A
C445        H448   1.083       .  S
C449        C450   1.406       .  A
C449        C454   1.408       .  A
C449        C706   1.471       .  S
C450        C451   1.403       .  A
C450        H455   1.081       .  S
C451        C452   1.400       .  A
C452        C453   1.400       .  A
C452        H456   1.073       .  S
C453        C454   1.403       .  A
C454        H457   1.083       .  S
C458        C459   1.405       .  A
C458        C463   1.412       .  A
C458        C690   1.480       .  S
C459        C460   1.397       .  A
C459        H464   1.082       .  S
C460        C461   1.403       .  A
C461        C462   1.402       .  A
C461        H465   1.075       .  S
C462        C463   1.407       .  A
C463        H466   1.083       .  S
O467       Ni473   1.963       .  S
O467        C488   1.281       .  A
O468       Ni491   1.865       .  S
O468        C477   1.259       .  A
O469      Ni1257   1.916       .  S
O469       Ni491   1.878       .  S
O469       Ni485   1.897       .  S
O469        H492   0.963       .  S
C470        C645   1.476       .  S
C470        O487   1.262       .  A
C470        O479   1.275       .  A
O471       Ni490   1.952       .  S
O471        C477   1.276       .  A
O472       Ni490   1.923       .  S
O472        C474   1.279       .  A
Ni473       O476   1.958       .  S
Ni473      O1262   1.916   1_455  S
Ni473      O1253   1.914   1_455  S
C474        C661   1.497       .  S
C474        O484   1.276       .  A
O475       Ni491   1.885       .  S
O475       C1265   1.261       .  A
O476        C481   1.281       .  A
C477        C709   1.500       .  S
O478      Ni1257   1.917       .  S
O478        C480   1.273       .  A
O479       Ni490   1.957       .  S
C480        C725   1.498       .  S
C480        O486   1.274       .  A
C481        C693   1.470       .  S
C481       O1259   1.261   1_455  A
H482        O483   0.966       .  S
O483       Ni491   1.911       .  S
O483       Ni485   1.885       .  S
O483       Ni490   1.923       .  S
O484       Ni485   1.942       .  S
Ni485       O489   1.859       .  S
Ni485       O487   1.894       .  S
O486       Ni491   1.931       .  S
C488        C674   1.476       .  S
C488       O1273   1.258   1_455  A
O489       C1272   1.260       .  A
O493       Ni499   1.938       .  S
O493        C514   1.273   1_556  A
O494       Ni517   1.853       .  S
O494        C503   1.252       .  A
O495       Ni499   1.921       .  S
O495       Ni517   1.892       .  S
O495       Ni511   1.910       .  S
O495        H518   0.966       .  S
C496        C738   1.486       .  S
C496        O513   1.270       .  A
C496        O505   1.275       .  A
O497       Ni516   1.955       .  S
O497        C503   1.274       .  A
O498       Ni516   1.924       .  S
O498        C500   1.275   1_556  A
Ni499       O502   1.940       .  S
Ni499       O504   1.916       .  S
C500       C1557   1.464       .  S
C500        O510   1.270       .  A
O501       Ni517   1.896       .  S
O501        C507   1.261       .  A
O502        C507   1.275       .  A
O504        C506   1.271       .  A
O505       Ni516   1.944   1_554  S
C506        C594   1.470       .  S
C506        O512   1.271       .  A
C507       C1397   1.489       .  S
H508        O509   0.968       .  S
O509       Ni517   1.907       .  S
O509       Ni511   1.896       .  S
O509       Ni516   1.931       .  S
O510       Ni511   1.913   1_554  S
Ni511       O515   1.869   1_556  S
Ni511       O513   1.912   1_556  S
O512       Ni517   1.930       .  S
C514        C757   1.469       .  S
C514        O515   1.261       .  A
C519        C520   1.416       .  A
C519        C524   1.420       .  A
C519        C658   1.502       .  S
C520        C521   1.409       .  A
C521        C522   1.397       .  A
C521        C541   1.509       .  S
C522        C523   1.396       .  A
C522        H526   1.072       .  S
C523        C524   1.409       .  A
C523       C1336   1.514       .  S
C524        H527   1.080       .  S
C528        C529   1.412       .  A
C528        C533   1.408       .  A
C528        C629   1.480       .  S
C529        C530   1.409       .  A
C529       H1318   1.083       .  S
C530        C531   1.400       .  A
C530       C1339   1.509       .  S
C531        C532   1.400       .  A
C531        H535   1.074       .  S
C532        C533   1.398       .  A
C532        C544   1.505       .  S
C533        H536   1.081       .  S
H534       C1313   1.083   1_455  S
C537        H538   1.110       .  S
C537        C542   1.548       .  S
C537        C541   1.541       .  S
C539        H540   1.108       .  S
C539        C545   1.547       .  S
C539        C544   1.546       .  S
C541        C544   1.394       .  D
C542        C568   1.506       .  S
C542        C545   1.394       .  D
C543        C559   1.504       .  S
C543        C546   1.392       .  D
C545        C577   1.516       .  S
C546        C586   1.510       .  S
C547        H548   1.109       .  S
C547        C553   1.544       .  S
C547        C552   1.546       .  S
C547        C551   1.543       .  S
C549        H550   1.110       .  S
C549        C555   1.544       .  S
C549        C554   1.549       .  S
C549        C556   1.543       .  S
C551        C561   1.513       .  S
C551        C554   1.395       .  D
C552       C1307   1.514   1_455  S
C552        C555   1.399       .  D
C553        C570   1.503       .  S
C553        C556   1.390       .  D
C554        C588   1.509       .  S
C555       C1314   1.510   1_455  S
C556        C579   1.509       .  S
C557        C558   1.409       .  A
C557        C562   1.410       .  A
C557        C677   1.476       .  S
C558        C559   1.400       .  A
C558        H563   1.083       .  S
C559        C560   1.403       .  A
C560        C561   1.402       .  A
C560        H564   1.074       .  S
C561        C562   1.403       .  A
C562        H565   1.080       .  S
C566        C567   1.407       .  A
C566        C571   1.405       .  A
C566        C642   1.470       .  S
C567        C568   1.406       .  A
C567        H572   1.083       .  S
C568        C569   1.404       .  A
C569        C570   1.404       .  A
C569        H573   1.074       .  S
C570        C571   1.395       .  A
C571        H574   1.084       .  S
C575        C576   1.412       .  A
C575        C580   1.410       .  A
C575        C597   1.479       .  S
C576        C577   1.398       .  A
C576        H581   1.081       .  S
C577        C578   1.402       .  A
C578        C579   1.404       .  A
C578        H582   1.072       .  S
C579        C580   1.407       .  A
C580        H583   1.083       .  S
C584        C585   1.409       .  A
C584        C589   1.411       .  A
C584        C610   1.480       .  S
C585        C586   1.404       .  A
C585        H590   1.082       .  S
C586        C587   1.401       .  A
C587        C588   1.400       .  A
C587        H591   1.073       .  S
C588        C589   1.406       .  A
C589        H592   1.082       .  S
C593        C594   1.403       .  A
C593        C598   1.412       .  A
C593        H600   1.083       .  S
C594        C595   1.416       .  A
C595        C596   1.392       .  A
C595        C602   1.513       .  S
C596        C597   1.397       .  A
C596        H601   1.085       .  S
C597        C598   1.423       .  A
C598        C599   1.520       .  S
C599        F603   1.385       .  S
C599        F604   1.383       .  S
C599        F605   1.377       .  S
C602        F606   1.373       .  S
C602        F607   1.381       .  S
C602        F608   1.385       .  S
C609        C610   1.395       .  A
C609       C1398   1.404       .  A
C609        H616   1.083       .  S
C610        C611   1.419       .  A
C611        C612   1.404       .  A
C611        C618   1.516       .  S
C612        C613   1.401       .  A
C612        H617   1.083       .  S
C613       C1398   1.428       .  A
C613       C1291   1.489       .  S
C614       C1393   1.403       .  A
C614       C1397   1.428       .  A
C614        C615   1.512       .  S
C615        F619   1.385       .  S
C615        F620   1.382       .  S
C615        F621   1.379       .  S
C618        F622   1.383       .  S
C618        F623   1.378       .  S
C618        F624   1.385       .  S
C625        C626   1.404       .  A
C625        C630   1.399       .  A
C626        C627   1.414       .  A
C627        C628   1.410       .  A
C627        C634   1.516       .  S
C628        C629   1.408       .  A
C628        H633   1.083       .  S
C629        C630   1.415       .  A
C630        C631   1.519       .  S
C631        F635   1.384       .  S
C631        F636   1.383       .  S
C631        F637   1.382       .  S
C634        F638   1.384       .  S
C634        F640   1.385       .  S
C641        C642   1.393       .  A
C641        C646   1.399       .  A
C641        H648   1.083       .  S
C642        C643   1.418       .  A
C643        C644   1.406       .  A
C643        C650   1.519       .  S
C644        C645   1.401       .  A
C644        H649   1.083       .  S
C645        C646   1.422       .  A
C646        C647   1.511       .  S
C647        F651   1.385       .  S
C647        F652   1.381       .  S
C647        F653   1.374       .  S
C650        F654   1.381       .  S
C650        F655   1.377       .  S
C650        F656   1.385       .  S
C657        C662   1.408   1_545  A
C657        H664   1.082       .  S
C658        C659   1.429       .  A
C659        C666   1.516       .  S
C660        C661   1.403       .  A
C660        H665   1.084       .  S
C661        C662   1.425       .  A
C662        C663   1.518       .  S
C663        F667   1.377       .  S
C663        F668   1.381   1_565  S
C663        F669   1.380   1_565  S
C666        F670   1.382       .  S
C666        F671   1.382       .  S
C666        F672   1.386       .  S
C673        C674   1.410       .  A
C673        C678   1.402       .  A
C673       H1464   1.085   1_455  S
C674        C675   1.413       .  A
C675        C676   1.404       .  A
C675        C682   1.518       .  S
C676        C677   1.408       .  A
C676        H681   1.083       .  S
C677        C678   1.414       .  A
C678        C679   1.521   1_455  S
C679       F1467   1.383       .  S
C679        F684   1.383       .  S
C679        F685   1.382       .  S
H680       C1457   1.085       .  S
C682        F686   1.384       .  S
C682        F687   1.383       .  S
C682        F688   1.384       .  S
F683       C1463   1.384       .  S
C689        C690   1.404       .  A
C689        C694   1.405       .  A
C689        H696   1.083       .  S
C691        C692   1.401       .  A
C691        C698   1.516       .  S
C692        C693   1.402       .  A
C692        H697   1.085       .  S
C694        C695   1.519       .  S
C695        F699   1.385       .  S
C695        F700   1.383       .  S
C695        F701   1.381       .  S
C698        F702   1.382       .  S
C698        F703   1.383       .  S
C698        F704   1.378   1_455  S
C705        C706   1.403       .  A
C705        C710   1.409       .  A
C705        H712   1.084       .  S
C706        C707   1.405       .  A
C707        C708   1.402       .  A
C707        C714   1.522       .  S
C708        C709   1.420       .  A
C708        H713   1.082       .  S
C709        C710   1.424       .  A
C710        C711   1.520       .  S
C711        F715   1.384       .  S
C711        F716   1.383       .  S
C711        F717   1.383       .  S
C714        F718   1.381       .  S
C714        F719   1.384       .  S
C714        F720   1.383       .  S
C721        C722   1.403       .  A
C721        C726   1.408       .  A
C721        H728   1.084       .  S
C722        C723   1.409       .  A
C723        C724   1.405       .  A
C723        C730   1.523       .  S
C724        C725   1.417       .  A
C724        H729   1.082       .  S
C725        C726   1.423       .  A
C726        C727   1.521       .  S
C727        F731   1.385       .  S
C727        F732   1.384       .  S
C727       F1517   1.382       .  S
C730        F734   1.380       .  S
C730        F735   1.384       .  S
C730        F736   1.383       .  S
F733       C1511   1.382   1_455  S
C737        C738   1.410       .  A
C737        C742   1.414       .  A
C737        H744   1.083       .  S
C738        C739   1.417       .  A
C739        C740   1.408       .  A
C739        C746   1.522       .  S
C740        C741   1.405       .  A
C740        H745   1.083       .  S
C741        C742   1.414       .  A
C742        C743   1.521       .  S
C743        F747   1.385       .  S
C743        F748   1.381       .  S
C743        F749   1.383       .  S
C746        F750   1.383       .  S
C746        F751   1.382       .  S
C746        F752   1.384       .  S
C753        C754   1.414       .  A
C753        C758   1.402       .  A
C753        H760   1.082       .  S
C754        C755   1.427       .  A
C755        C756   1.402       .  A
C755        C762   1.522       .  S
C756        C757   1.401       .  A
C756        H761   1.084       .  S
C757        C758   1.410       .  A
C758        C759   1.521       .  S
C759       F1547   1.385       .  S
C759       F1548   1.384       .  S
C759        F765   1.383       .  S
C762        F766   1.383       .  S
C762        F767   1.382       .  S
C762        F768   1.383       .  S
F763       C1543   1.385   1_455  S
F764       C1543   1.384   1_455  S
C769        C770   1.409       .  A
C769        C774   1.409       .  A
C769        H776   1.083       .  S
C770        C771   1.417   1_455  A
C771       C1164   1.396       .  A
C771        C778   1.518       .  S
C772       C1163   1.398   1_565  A
C772       C1557   1.402       .  A
C772        H777   1.084       .  S
C773       C1556   1.402       .  A
C773       C1284   1.464       .  S
C774        C775   1.515       .  S
C775        F779   1.384       .  S
C775        F780   1.383   1_554  S
C775        F781   1.380       .  S
C778       F1566   1.383       .  S
C778        F783   1.382       .  S
C778       F1176   1.378       .  S
F782       C1562   1.383       .  S
F784       C1170   1.378       .  S
C785        C786   1.410       .  A
C785        C790   1.399       .  A
C785       C1162   1.466       .  S
C786        C787   1.407       .  A
C786        H791   1.082       .  S
C787        C788   1.404       .  A
C787        C799   1.511       .  S
C788        C789   1.402       .  A
C788        H792   1.072       .  S
C789        C790   1.393       .  A
C789        C812   1.511       .  S
C790        H793   1.078       .  S
C794        H795   1.107       .  S
C794       C1192   1.541   1_545  S
C794        C799   1.550       .  S
C794        C798   1.549       .  S
C796        H797   1.108       .  S
C796        C802   1.542       .  S
C796        C801   1.548       .  S
C796        C803   1.544   1_545  S
C798        C818   1.512       .  S
C798        C801   1.399       .  D
C799        C802   1.391       .  D
C800        C825   1.506       .  S
C800       C1186   1.545       .  S
C800       C1195   1.394       .  D
C801        C834   1.513       .  S
C802        C852   1.510       .  S
C803       C1235   1.509       .  S
C803       C1192   1.395       .  D
C804        H805   1.110       .  S
C804        C810   1.543       .  S
C804        C809   1.550       .  S
C804        C808   1.553       .  S
C806        H807   1.108       .  S
C806        C812   1.549       .  S
C806        C811   1.527       .  S
C806        C813   1.549       .  S
C808        C845   1.502       .  S
C808        C811   1.391       .  D
C809        C854   1.512       .  S
C809        C812   1.396       .  D
C810        C836   1.512       .  S
C810        C813   1.395       .  D
C811        C827   1.507       .  S
C814        C815   1.418       .  A
C814        C819   1.407       .  A
C814       C1146   1.491       .  S
C815        C816   1.406       .  A
C815        H820   1.083       .  S
C816        C817   1.399       .  A
C817        C818   1.396       .  A
C817        H821   1.073       .  S
C818        C819   1.397       .  A
C819        H822   1.065       .  S
C823        C824   1.412       .  A
C823        C828   1.410       .  A
C823       C1133   1.483       .  S
C824        C825   1.407       .  A
C824        H829   1.083       .  S
C825        C826   1.398       .  A
C826        C827   1.399       .  A
C826        H830   1.075       .  S
C827        C828   1.408       .  A
C828        H831   1.082       .  S
C832        C833   1.408       .  A
C832       C1114   1.478       .  S
C833        C834   1.403       .  A
C833        H838   1.077       .  S
C834        C835   1.401       .  A
C835        H839   1.073       .  S
C836        C837   1.406       .  A
C837        H840   1.083       .  S
C841        C842   1.407       .  A
C841        C846   1.406       .  A
C841       C1098   1.471       .  S
C842        C843   1.403       .  A
C842        H847   1.080       .  S
C843        C844   1.401       .  A
C843       C1195   1.511       .  S
C844        C845   1.402       .  A
C844        H848   1.073       .  S
C845        C846   1.401       .  A
C846        H849   1.083       .  S
C850        C851   1.409       .  A
C850        C855   1.414       .  A
C850       C1082   1.485       .  S
C851        C852   1.397       .  A
C851        H856   1.081       .  S
C852        C853   1.404       .  A
C853        C854   1.403       .  A
C853        H857   1.075       .  S
C854        C855   1.409       .  A
C855        H858   1.083       .  S
O859       Ni865   1.962       .  S
O859        C880   1.281       .  A
O860       Ni883   1.861       .  S
O860        C869   1.258       .  A
O861       Ni883   1.871       .  S
O861       Ni877   1.891       .  S
O861        H884   0.952       .  S
C862       C1037   1.477       .  S
C862        O879   1.261       .  A
C862        O871   1.275       .  A
O863       Ni882   1.950       .  S
O863        C869   1.276       .  A
O864       Ni882   1.919       .  S
O864        C866   1.277       .  A
Ni865       O868   1.960       .  S
C866       C1053   1.489       .  S
C866        O876   1.277       .  A
O867       Ni883   1.888       .  S
O868        C873   1.279       .  A
C869       C1101   1.498       .  S
O870        C872   1.274       .  A
O871       Ni882   1.960       .  S
C872       C1117   1.497       .  S
C872        O878   1.273       .  A
C873       C1085   1.478       .  S
H874        O875   0.966       .  S
O875       Ni883   1.915       .  S
O875       Ni877   1.883       .  S
O875       Ni882   1.924       .  S
O876       Ni877   1.938       .  S
Ni877       O881   1.852       .  S
Ni877       O879   1.894       .  S
O878       Ni883   1.923       .  S
C880       C1066   1.490       .  S
O885       Ni891   1.942       .  S
O885        C906   1.274   1_556  A
O886       Ni909   1.865       .  S
O886        C895   1.255       .  A
O887       Ni891   1.923       .  S
O887       Ni909   1.888       .  S
O887       Ni903   1.902       .  S
O887        H910   0.965       .  S
C888       C1130   1.486       .  S
C888        O905   1.270       .  A
C888        O897   1.274       .  A
O889       Ni908   1.949       .  S
O889        C895   1.273       .  A
O890       Ni908   1.918       .  S
O890        C892   1.274   1_556  A
Ni891       O894   1.943       .  S
Ni891       O896   1.912       .  S
C892        O902   1.272       .  A
O893       Ni909   1.894   1_455  S
O893        C899   1.263       .  A
O894        C899   1.277   1_655  A
C895       C1410   1.474       .  S
O896        C898   1.270       .  A
O897       Ni908   1.943   1_554  S
C898        C986   1.466       .  S
C898        O904   1.271       .  A
H900        O901   0.968       .  S
O901       Ni909   1.914       .  S
O901       Ni903   1.902       .  S
O901       Ni908   1.935       .  S
O902       Ni903   1.919   1_554  S
Ni903       O907   1.871   1_556  S
Ni903       O905   1.911   1_556  S
O904       Ni909   1.926       .  S
C906       C1149   1.473       .  S
C906        O907   1.263       .  A
C911        C912   1.412       .  A
C911        C916   1.418       .  A
C911       C1050   1.497       .  S
C912        C913   1.405       .  A
C912       H1309   1.080       .  S
C913        C914   1.399       .  A
C913        C933   1.506       .  S
C914        C915   1.398       .  A
C914        H918   1.072       .  S
C915        C916   1.407       .  A
C916        H919   1.078   1_655  S
H917       C1304   1.081       .  S
C920        C921   1.410       .  A
C920        C925   1.411       .  A
C920       C1021   1.479       .  S
C921        C922   1.406       .  A
C922        C923   1.401       .  A
C923        C924   1.401       .  A
C923        H927   1.074       .  S
C924        C925   1.403       .  A
C924        C936   1.509       .  S
C925        H928   1.082       .  S
C929        H930   1.110       .  S
C929       C1327   1.553   1_545  S
C929        C934   1.545       .  S
C929        C933   1.547       .  S
C931        H932   1.108       .  S
C931        C937   1.549       .  S
C931        C936   1.541       .  S
C931       C1330   1.534   1_545  S
C933        C936   1.394       .  D
C934        C960   1.511       .  S
C934        C937   1.392       .  D
C935        C951   1.507       .  S
C935       C1321   1.550       .  S
C935        C938   1.393       .  D
C937        C969   1.507       .  S
C938        C978   1.511       .  S
C938       C1323   1.541       .  S
C939        H940   1.109       .  S
C939        C945   1.544       .  S
C939        C944   1.546       .  S
C939        C943   1.544       .  S
C941        H942   1.110       .  S
C941        C947   1.546       .  S
C941        C946   1.550       .  S
C941        C948   1.541       .  S
C943        C953   1.513       .  S
C943        C946   1.397       .  D
C944        C947   1.400       .  D
C945        C962   1.500       .  S
C945        C948   1.388       .  D
C946        C980   1.513       .  S
C948        C971   1.507       .  S
C949        C950   1.409       .  A
C949        C954   1.409       .  A
C949       C1069   1.471       .  S
C950        C951   1.401       .  A
C950        H955   1.083       .  S
C951        C952   1.403       .  A
C952        C953   1.403       .  A
C952        H956   1.074       .  S
C953        C954   1.403       .  A
C954        H957   1.083       .  S
C958        C959   1.412       .  A
C958        C963   1.403       .  A
C958       C1034   1.477       .  S
C959        C960   1.409       .  A
C959        H964   1.083       .  S
C960        C961   1.405       .  A
C961        C962   1.405       .  A
C961        H965   1.076       .  S
C962        C963   1.396       .  A
C963        H966   1.084       .  S
C967        C968   1.406       .  A
C967        C972   1.410       .  A
C967        C989   1.477       .  S
C968        C969   1.393       .  A
C968        H973   1.081       .  S
C969        C970   1.402       .  A
C970        C971   1.405       .  A
C970        H974   1.073       .  S
C971        C972   1.407       .  A
C972        H975   1.082       .  S
C976        C977   1.408       .  A
C976        C981   1.411       .  A
C976       C1002   1.474       .  S
C977        C978   1.402       .  A
C977        H982   1.082       .  S
C978        C979   1.402       .  A
C979        C980   1.401       .  A
C979        H983   1.072       .  S
C980        C981   1.406       .  A
C981        H984   1.083       .  S
C985        C986   1.401       .  A
C985        C990   1.410       .  A
C985        H992   1.083       .  S
C986        C987   1.415       .  A
C987        C988   1.392       .  A
C987        C994   1.515       .  S
C988        C989   1.400       .  A
C988        H993   1.085       .  S
C989        C990   1.422       .  A
C990        C991   1.520       .  S
C991        F995   1.384       .  S
C991        F996   1.383       .  S
C991        F997   1.378       .  S
C994        F998   1.378       .  S
C994        F999   1.378       .  S
C994       F1000   1.386       .  S
C1001      C1002   1.393       .  A
C1001      H1008   1.083       .  S
C1002      C1003   1.416       .  A
C1003      C1004   1.405       .  A
C1003      C1010   1.518       .  S
C1004      C1005   1.404       .  A
C1004      H1009   1.083       .  S
C1006      C1007   1.515       .  S
C1007      F1011   1.385       .  S
C1007      F1012   1.382       .  S
C1007      F1013   1.380   1_455  S
C1010      F1014   1.383       .  S
C1010      F1015   1.378       .  S
C1010      F1016   1.385       .  S
C1017      C1018   1.406   1_565  A
C1017      C1022   1.399       .  A
C1017      H1416   1.086       .  S
C1018      C1019   1.412       .  A
C1018      C1287   1.473   1_545  S
C1019      C1020   1.409       .  A
C1019      C1026   1.516       .  S
C1020      C1021   1.410       .  A
C1020      H1025   1.083       .  S
C1021      C1022   1.414   1_545  A
C1022      C1023   1.519       .  S
C1023      F1027   1.385       .  S
C1023      F1028   1.383       .  S
C1023      F1029   1.382       .  S
H1024      C1409   1.085       .  S
C1026      F1030   1.384   1_655  S
C1026      F1423   1.382       .  S
C1026      F1032   1.385   1_655  S
F1031      C1418   1.383       .  S
C1033      C1034   1.400       .  A
C1033      C1038   1.407       .  A
C1033      H1040   1.083       .  S
C1034      C1035   1.419       .  A
C1035      C1036   1.404       .  A
C1035      C1042   1.518       .  S
C1036      C1037   1.398       .  A
C1036      H1041   1.083       .  S
C1037      C1038   1.419       .  A
C1038      C1039   1.513       .  S
C1039      F1043   1.385       .  S
C1039      F1044   1.381       .  S
C1039      F1045   1.380       .  S
C1042      F1046   1.381       .  S
C1042      F1047   1.378       .  S
C1042      F1048   1.384       .  S
C1049      C1442   1.404       .  A
C1049      C1054   1.400       .  A
C1049      H1056   1.082       .  S
C1050      C1441   1.404       .  A
C1050      C1051   1.429       .  A
C1051      C1444   1.409       .  A
C1051      C1058   1.518       .  S
C1052      C1443   1.408       .  A
C1052      C1053   1.400       .  A
C1052      H1057   1.083       .  S
C1053      C1054   1.416       .  A
C1054      C1055   1.510   1_655  S
C1055      F1059   1.383       .  S
C1055      F1060   1.375       .  S
C1055      F1061   1.381       .  S
C1058      F1062   1.384       .  S
C1058      F1063   1.381       .  S
C1058      F1064   1.385       .  S
C1065      C1066   1.416       .  A
C1065      C1070   1.399       .  A
C1066      C1067   1.419       .  A
C1067      C1068   1.407       .  A
C1067      C1074   1.519       .  S
C1068      C1069   1.407       .  A
C1068      H1073   1.084       .  S
C1069      C1070   1.410       .  A
C1070      C1071   1.523       .  S
C1071      F1076   1.381       .  S
C1071      F1077   1.383       .  S
C1074      F1078   1.384       .  S
C1074      F1079   1.383       .  S
C1074      F1080   1.385       .  S
C1081      C1082   1.407       .  A
C1081      C1086   1.409       .  A
C1081      H1088   1.083       .  S
C1082      C1475   1.417   1_545  A
C1083      C1474   1.418       .  A
C1083      C1084   1.404       .  A
C1083      C1090   1.517       .  S
C1084      C1085   1.404       .  A
C1084      H1089   1.085       .  S
C1085      C1478   1.418       .  A
C1086      C1477   1.418   1_545  A
C1086      C1087   1.521       .  S
C1087      F1091   1.385       .  S
C1087      F1092   1.383       .  S
C1087      F1093   1.382       .  S
C1090      F1094   1.382       .  S
C1090      F1095   1.383       .  S
C1090      F1096   1.380       .  S
C1097      C1098   1.404       .  A
C1097      C1102   1.409       .  A
C1097      H1104   1.084       .  S
C1098      C1099   1.406       .  A
C1099      C1100   1.400       .  A
C1099      C1106   1.523       .  S
C1100      C1101   1.419       .  A
C1100      H1105   1.081       .  S
C1101      C1102   1.423       .  A
C1102      C1103   1.520       .  S
C1103      F1107   1.384       .  S
C1103      F1108   1.383       .  S
C1103      F1109   1.384       .  S
C1106      F1110   1.380       .  S
C1106      F1111   1.383       .  S
C1106      F1112   1.383       .  S
C1113      C1114   1.405       .  A
C1113      C1118   1.408       .  A
C1113      H1120   1.084       .  S
C1114      C1115   1.411       .  A
C1115      C1116   1.404       .  A
C1115      C1122   1.522       .  S
C1116      C1117   1.416       .  A
C1116      H1121   1.082       .  S
C1117      C1118   1.421       .  A
C1118      C1119   1.519       .  S
C1119      F1123   1.385       .  S
C1119      F1124   1.384       .  S
C1122      F1126   1.381       .  S
C1122      F1127   1.383       .  S
C1122      F1128   1.383       .  S
C1129      C1130   1.410       .  A
C1129      C1134   1.415       .  A
C1129      H1136   1.083       .  S
C1130      C1131   1.416       .  A
C1131      C1132   1.405       .  A
C1131      C1138   1.518       .  S
C1132      C1133   1.403       .  A
C1132      H1137   1.084       .  S
C1133      C1134   1.414       .  A
C1134      C1135   1.520       .  S
C1135      F1139   1.385       .  S
C1135      F1140   1.381       .  S
C1135      F1141   1.383       .  S
C1138      F1142   1.383       .  S
C1138      F1143   1.382       .  S
C1138      F1144   1.385       .  S
C1145      C1146   1.412       .  A
C1145      C1150   1.405       .  A
C1145      H1152   1.083       .  S
C1146      C1147   1.426       .  A
C1147      C1148   1.400       .  A
C1147      C1154   1.522       .  S
C1148      C1149   1.400       .  A
C1148      H1153   1.084       .  S
C1149      C1150   1.411       .  A
C1150      C1151   1.519       .  S
C1151      F1157   1.383       .  S
C1154      F1158   1.383       .  S
C1154      F1159   1.382       .  S
C1154      F1160   1.382       .  S
C1161      C1162   1.405       .  A
C1161      C1166   1.407       .  A
C1161      H1168   1.082       .  S
C1162      C1163   1.412       .  A
C1163      C1170   1.521   1_545  S
C1164      H1169   1.086       .  S
C1165      C1558   1.410       .  A
C1166      C1557   1.411   1_545  A
C1166      C1167   1.515       .  S
C1167      F1171   1.385       .  S
C1167      F1172   1.382   1_554  S
C1167      F1173   1.382   1_545  S
C1170      F1175   1.383       .  S
C1177      C1178   1.412       .  A
C1177      C1182   1.406       .  A
C1177      C1554   1.475       .  S
C1178      C1179   1.407       .  A
C1178      H1183   1.083       .  S
C1179      C1180   1.406       .  A
C1179      C1191   1.515       .  S
C1180      C1181   1.404       .  A
C1180      H1184   1.072       .  S
C1181      C1182   1.395       .  A
C1181      C1204   1.513       .  S
C1182      H1185   1.081       .  S
C1186      H1187   1.109       .  S
C1186      C1191   1.552       .  S
C1186      C1190   1.547       .  S
C1188      H1189   1.108       .  S
C1188      C1194   1.541       .  S
C1188      C1193   1.546       .  S
C1188      C1195   1.540       .  S
C1190      C1210   1.511       .  S
C1190      C1193   1.400       .  D
C1191      C1194   1.391       .  D
C1192      C1217   1.510       .  S
C1193      C1226   1.513       .  S
C1194      C1244   1.505       .  S
C1196      H1197   1.110       .  S
C1196      C1202   1.541       .  S
C1196      C1201   1.547       .  S
C1196      C1200   1.550       .  S
C1198      H1199   1.109       .  S
C1198      C1204   1.550       .  S
C1198      C1203   1.534       .  S
C1198      C1205   1.549       .  S
C1200      C1237   1.504       .  S
C1200      C1203   1.395       .  D
C1201      C1246   1.508       .  S
C1201      C1204   1.395       .  D
C1202      C1228   1.510       .  S
C1202      C1205   1.391       .  D
C1203      C1219   1.511       .  S
C1206      C1207   1.417       .  A
C1206      C1211   1.411       .  A
C1206      C1538   1.494       .  S
C1207      C1208   1.403       .  A
C1207      H1212   1.084       .  S
C1208      C1209   1.399       .  A
C1209      C1210   1.395       .  A
C1209      H1213   1.074       .  S
C1210      C1211   1.399       .  A
C1211      H1214   1.068       .  S
C1215      C1216   1.411       .  A
C1215      C1220   1.413       .  A
C1215      C1525   1.485       .  S
C1216      C1217   1.408       .  A
C1216      H1221   1.083       .  S
C1217      C1218   1.398       .  A
C1218      C1219   1.399       .  A
C1218      H1222   1.074       .  S
C1219      C1220   1.408       .  A
C1220      H1223   1.081       .  S
C1224      C1225   1.408       .  A
C1224      C1506   1.476       .  S
C1225      C1226   1.405       .  A
C1225      H1230   1.078       .  S
C1226      C1227   1.399       .  A
C1227      H1231   1.073       .  S
C1228      C1229   1.404       .  A
C1229      H1232   1.083       .  S
C1233      C1234   1.406       .  A
C1233      C1238   1.408       .  A
C1233      C1490   1.471       .  S
C1234      C1235   1.403       .  A
C1234      H1239   1.081       .  S
C1235      C1236   1.399       .  A
C1236      C1237   1.400       .  A
C1236      H1240   1.073       .  S
C1237      C1238   1.403       .  A
C1238      H1241   1.083       .  S
C1242      C1243   1.407       .  A
C1242      C1247   1.413       .  A
C1242      C1474   1.482       .  S
C1243      C1244   1.397       .  A
C1243      H1248   1.082       .  S
C1244      C1245   1.403       .  A
C1245      C1246   1.402       .  A
C1245      H1249   1.075       .  S
C1246      C1247   1.408       .  A
C1247      H1250   1.083       .  S
O1251     Ni1257   1.959       .  S
O1251      C1272   1.280       .  A
O1252     Ni1275   1.863       .  S
O1252      C1261   1.258       .  A
O1253     Ni1275   1.873       .  S
O1253     Ni1269   1.883       .  S
O1253      H1276   0.958       .  S
C1254      C1429   1.470       .  S
C1254      O1271   1.259       .  A
C1254      O1263   1.275       .  A
O1255     Ni1274   1.952       .  S
O1255      C1261   1.276       .  A
O1256     Ni1274   1.920       .  S
O1256      C1258   1.278       .  A
Ni1257     O1260   1.958       .  S
C1258      C1445   1.492       .  S
C1258      O1268   1.278       .  A
O1259     Ni1275   1.879       .  S
O1260      C1265   1.279       .  A
C1261      C1493   1.500       .  S
O1262      C1264   1.271       .  A
O1263     Ni1274   1.957       .  S
C1264      C1509   1.497       .  S
C1264      O1270   1.273       .  A
C1265      C1477   1.475       .  S
H1266      O1267   0.966       .  S
O1267     Ni1275   1.911       .  S
O1267     Ni1269   1.888       .  S
O1267     Ni1274   1.927       .  S
O1268     Ni1269   1.943       .  S
Ni1269     O1273   1.856       .  S
Ni1269     O1271   1.884       .  S
O1270     Ni1275   1.928       .  S
C1272      C1458   1.483       .  S
O1277     Ni1283   1.938       .  S
O1277      C1298   1.273   1_556  A
O1278     Ni1301   1.853       .  S
O1278      C1287   1.252       .  A
O1279     Ni1283   1.922       .  S
O1279     Ni1301   1.892       .  S
O1279     Ni1295   1.910       .  S
O1279      H1302   0.966       .  S
C1280      C1522   1.486       .  S
C1280      O1297   1.270       .  A
C1280      O1289   1.275       .  A
O1281     Ni1300   1.954       .  S
O1281      C1287   1.274       .  A
O1282     Ni1300   1.923       .  S
O1282      C1284   1.274   1_556  A
Ni1283     O1286   1.941   1_655  S
Ni1283     O1288   1.915       .  S
C1284      O1294   1.270       .  A
O1285     Ni1301   1.897   1_455  S
O1285      C1291   1.262       .  A
O1286      C1291   1.275       .  A
O1288      C1290   1.271       .  A
O1289     Ni1300   1.944   1_554  S
C1290      C1378   1.469       .  S
C1290      O1296   1.271       .  A
H1292      O1293   0.968       .  S
O1293     Ni1301   1.907       .  S
O1293     Ni1295   1.896       .  S
O1293     Ni1300   1.931       .  S
O1294     Ni1295   1.913   1_554  S
Ni1295     O1299   1.869   1_556  S
Ni1295     O1297   1.912   1_556  S
O1296     Ni1301   1.928       .  S
C1298      C1541   1.469       .  S
C1298      O1299   1.261       .  A
C1303      C1304   1.414       .  A
C1303      C1308   1.419       .  A
C1303      C1442   1.497       .  S
C1304      C1305   1.408       .  A
C1305      C1306   1.397       .  A
C1305      C1325   1.507       .  S
C1306      C1307   1.396       .  A
C1306      H1310   1.072       .  S
C1307      C1308   1.406       .  A
C1308      H1311   1.079   1_655  S
C1312      C1313   1.412       .  A
C1312      C1317   1.408       .  A
C1312      C1413   1.480       .  S
C1313      C1314   1.409       .  A
C1314      C1315   1.401       .  A
C1315      C1316   1.401       .  A
C1315      H1319   1.074       .  S
C1316      C1317   1.399       .  A
C1316      C1328   1.507       .  S
C1317      H1320   1.082       .  S
C1321      H1322   1.110       .  S
C1321      C1326   1.546       .  S
C1321      C1325   1.542       .  S
C1323      H1324   1.108       .  S
C1323      C1329   1.547       .  S
C1323      C1328   1.545       .  S
C1325      C1328   1.394       .  D
C1326      C1352   1.506       .  S
C1326      C1329   1.393       .  D
C1327      C1343   1.507       .  S
C1327      C1330   1.393       .  D
C1329      C1361   1.513       .  S
C1330      C1370   1.507       .  S
C1331      H1332   1.109       .  S
C1331      C1337   1.542       .  S
C1331      C1336   1.546       .  S
C1331      C1335   1.542       .  S
C1333      H1334   1.110       .  S
C1333      C1339   1.543       .  S
C1333      C1338   1.548       .  S
C1333      C1340   1.541       .  S
C1335      C1345   1.510       .  S
C1335      C1338   1.394       .  D
C1336      C1339   1.401       .  D
C1337      C1354   1.499       .  S
C1337      C1340   1.389       .  D
C1338      C1372   1.507       .  S
C1340      C1363   1.506       .  S
C1341      C1342   1.413       .  A
C1341      C1346   1.409       .  A
C1341      C1461   1.479       .  S
C1342      C1343   1.403       .  A
C1342      H1347   1.083       .  S
C1343      C1344   1.402       .  A
C1344      C1345   1.402       .  A
C1344      H1348   1.074       .  S
C1345      C1346   1.401       .  A
C1346      H1349   1.082       .  S
C1350      C1351   1.409       .  A
C1350      C1355   1.404       .  A
C1350      C1426   1.472       .  S
C1351      C1352   1.407       .  A
C1351      H1356   1.083       .  S
C1352      C1353   1.403       .  A
C1353      C1354   1.403       .  A
C1353      H1357   1.075       .  S
C1354      C1355   1.396       .  A
C1355      H1358   1.084       .  S
C1359      C1360   1.412       .  A
C1359      C1364   1.410       .  A
C1359      C1381   1.479       .  S
C1360      C1361   1.397       .  A
C1360      H1365   1.081       .  S
C1361      C1362   1.401       .  A
C1362      C1363   1.404       .  A
C1362      H1366   1.072       .  S
C1363      C1364   1.407       .  A
C1364      H1367   1.083       .  S
C1368      C1369   1.408       .  A
C1368      C1373   1.410       .  A
C1368      C1394   1.479       .  S
C1369      C1370   1.403       .  A
C1369      H1374   1.082       .  S
C1370      C1371   1.400       .  A
C1371      C1372   1.400       .  A
C1371      H1375   1.073       .  S
C1372      C1373   1.405       .  A
C1373      H1376   1.082       .  S
C1377      C1378   1.403       .  A
C1377      C1382   1.412       .  A
C1377      H1384   1.083       .  S
C1378      C1379   1.415       .  A
C1379      C1380   1.391       .  A
C1379      C1386   1.512       .  S
C1380      C1381   1.397       .  A
C1380      H1385   1.085       .  S
C1381      C1382   1.424       .  A
C1382      C1383   1.520       .  S
C1383      F1387   1.385       .  S
C1383      F1388   1.383       .  S
C1383      F1389   1.376       .  S
C1386      F1390   1.374       .  S
C1386      F1391   1.380       .  S
C1386      F1392   1.384       .  S
C1393      C1394   1.395       .  A
C1393      H1400   1.083       .  S
C1394      C1395   1.418       .  A
C1395      C1396   1.403       .  A
C1395      C1402   1.516       .  S
C1396      C1397   1.401       .  A
C1396      H1401   1.083       .  S
C1398      C1399   1.513       .  S
C1399      F1403   1.385       .  S
C1399      F1404   1.382       .  S
C1399      F1405   1.379   1_455  S
C1402      F1406   1.383       .  S
C1402      F1407   1.377       .  S
C1402      F1408   1.385       .  S
C1409      C1410   1.404       .  A
C1409      C1414   1.399       .  A
C1410      C1411   1.413       .  A
C1411      C1412   1.410       .  A
C1411      C1418   1.516       .  S
C1412      C1413   1.408       .  A
C1412      H1417   1.083       .  S
C1413      C1414   1.415       .  A
C1414      C1415   1.519       .  S
C1415      F1419   1.384       .  S
C1415      F1420   1.383       .  S
C1415      F1421   1.382       .  S
C1418      F1422   1.384   1_655  S
C1418      F1424   1.385   1_655  S
C1425      C1426   1.398       .  A
C1425      C1430   1.403       .  A
C1425      H1432   1.083       .  S
C1426      C1427   1.418       .  A
C1427      C1428   1.402       .  A
C1427      C1434   1.517       .  S
C1428      C1429   1.397       .  A
C1428      H1433   1.084       .  S
C1429      C1430   1.418       .  A
C1430      C1431   1.513       .  S
C1431      F1435   1.385       .  S
C1431      F1436   1.381       .  S
C1431      F1437   1.380       .  S
C1434      F1438   1.381       .  S
C1434      F1439   1.379       .  S
C1434      F1440   1.385       .  S
C1441      C1446   1.401       .  A
C1441      H1448   1.082       .  S
C1442      C1443   1.430       .  A
C1443      C1450   1.518       .  S
C1444      C1445   1.401   1_545  A
C1444      H1449   1.083   1_545  S
C1445      C1446   1.416   1_565  A
C1446      C1447   1.510   1_655  S
C1447      F1451   1.382   1_545  S
C1447      F1452   1.377       .  S
C1447      F1453   1.383       .  S
C1450      F1454   1.383       .  S
C1450      F1455   1.381       .  S
C1450      F1456   1.386       .  S
C1457      C1458   1.411       .  A
C1457      C1462   1.402       .  A
C1458      C1459   1.416       .  A
C1459      C1460   1.405       .  A
C1459      C1466   1.518       .  S
C1460      C1461   1.407       .  A
C1460      H1465   1.083       .  S
C1461      C1462   1.415       .  A
C1462      C1463   1.521       .  S
C1463      F1468   1.382       .  S
C1463      F1469   1.383       .  S
C1466      F1470   1.383       .  S
C1466      F1471   1.383       .  S
C1466      F1472   1.385       .  S
C1473      C1474   1.405       .  A
C1473      C1478   1.406       .  A
C1473      H1480   1.083       .  S
C1475      C1476   1.401       .  A
C1475      C1482   1.516       .  S
C1476      C1477   1.402       .  A
C1476      H1481   1.085       .  S
C1478      C1479   1.520       .  S
C1479      F1483   1.385       .  S
C1479      F1484   1.383       .  S
C1479      F1485   1.381       .  S
C1482      F1486   1.382       .  S
C1482      F1487   1.383       .  S
C1482      F1488   1.378       .  S
C1489      C1490   1.403       .  A
C1489      C1494   1.410       .  A
C1489      H1496   1.084       .  S
C1490      C1491   1.405       .  A
C1491      C1492   1.401       .  A
C1491      C1498   1.522       .  S
C1492      C1493   1.420       .  A
C1492      H1497   1.082       .  S
C1493      C1494   1.423       .  A
C1494      C1495   1.520       .  S
C1495      F1499   1.384       .  S
C1495      F1500   1.383       .  S
C1495      F1501   1.383       .  S
C1498      F1502   1.381       .  S
C1498      F1503   1.384       .  S
C1498      F1504   1.384       .  S
C1505      C1506   1.404       .  A
C1505      C1510   1.409       .  A
C1505      H1512   1.084       .  S
C1506      C1507   1.408       .  A
C1507      C1508   1.404       .  A
C1507      C1514   1.522       .  S
C1508      C1509   1.416       .  A
C1508      H1513   1.082       .  S
C1509      C1510   1.423       .  A
C1510      C1511   1.521       .  S
C1511      F1515   1.385       .  S
C1511      F1516   1.384       .  S
C1514      F1518   1.380       .  S
C1514      F1519   1.384       .  S
C1514      F1520   1.382       .  S
C1521      C1522   1.410       .  A
C1521      C1526   1.414       .  A
C1521      H1528   1.083       .  S
C1522      C1523   1.418       .  A
C1523      C1524   1.408       .  A
C1523      C1530   1.521       .  S
C1524      C1525   1.405       .  A
C1524      H1529   1.083       .  S
C1525      C1526   1.413       .  A
C1526      C1527   1.521       .  S
C1527      F1531   1.385       .  S
C1527      F1532   1.381       .  S
C1527      F1533   1.383       .  S
C1530      F1534   1.383       .  S
C1530      F1535   1.382       .  S
C1530      F1536   1.385       .  S
C1537      C1538   1.414       .  A
C1537      C1542   1.402       .  A
C1537      H1544   1.082       .  S
C1538      C1539   1.427       .  A
C1539      C1540   1.402       .  A
C1539      C1546   1.522       .  S
C1540      C1541   1.401       .  A
C1540      H1545   1.084       .  S
C1541      C1542   1.410       .  A
C1542      C1543   1.521       .  S
C1543      F1549   1.383       .  S
C1546      F1550   1.383       .  S
C1546      F1551   1.382       .  S
C1546      F1552   1.383       .  S
C1553      C1554   1.409       .  A
C1553      C1558   1.409       .  A
C1553      H1560   1.083       .  S
C1554      C1555   1.417       .  A
C1555      C1562   1.518       .  S
C1556      H1561   1.084       .  S
C1558      C1559   1.515       .  S
C1559      F1563   1.384       .  S
C1559      F1564   1.383   1_554  S
C1559      F1565   1.380       .  S
C1562      F1567   1.382       .  S
