geometry optimzed in LAMMPS
_audit_creation_date              2020-11-30 
_audit_creation_method            'lammps2cif' 
_symmetry_space_group_name_H-M    'P1' 
_symmetry_Int_Tables_number       1 
_symmetry_cell_setting            triclinic 
loop_ 
_symmetry_equiv_pos_as_xyz 
  x,y,z 
_cell_length_a                    44.03200533 
_cell_length_b                    43.9580627098879 
_cell_length_c                    42.68092683781867 
_cell_angle_alpha                 89.48955341127862 
_cell_angle_beta                  90.48718366693873 
_cell_angle_gamma                 120.22338652741249 
loop_ 
_atom_site_label 
_atom_site_type_symbol 
_atom_site_fract_x 
_atom_site_fract_y 
_atom_site_fract_z 
_atom_site_charge 
C1          C  0.27127003  0.26786174  0.51390766     0.80800
N2          N  0.28572433  0.28516266  0.04117813    -0.77500
C3          C  0.31673327  0.31619591  0.04101307     0.83200
N4          N  0.33319838  0.32954738  0.01335809    -0.77500
C5          C  0.31882308  0.31300748  0.48604247     0.83300
N6          N  0.28773166  0.28220199  0.48629146    -0.79200
C7          C  0.74144549  0.73934548  0.01355788     0.80800
N8          N  0.72930646  0.72511764  0.04243053    -0.77500
C9          C  0.69874004  0.69396383  0.04525302     0.83200
N10         N  0.68004327  0.67736107  0.01923605    -0.77500
C11         C  0.69147856  0.69158049  0.49040821     0.83300
N12         N  0.72231442  0.72242445  0.48771118    -0.79200
O13         O  0.51762399  0.55309721  0.29582417    -0.73900
O14         O  0.45821814  0.49176321  0.23113314    -0.73900
O15         O  0.45594530  0.49147723  0.29453246    -0.74000
O16         O  0.52007851  0.55357873  0.23224881    -0.74000
O17         O  0.54960853  0.52463462  0.23481055    -0.73900
O18         O  0.48458630  0.46158735  0.29578448    -0.73900
O19         O  0.48753846  0.46268244  0.23279390    -0.73900
O20         O  0.54624532  0.52329612  0.29807670    -0.74000
Ni21       Ni  0.48694823  0.52356320  0.26331937     1.25400
Ni22       Ni  0.51806022  0.49204657  0.26538687     1.25400
C23         C  0.54145820  0.54801729  0.30788940     0.88300
C24         C  0.46278846  0.46682385  0.22154350     0.88200
C25         C  0.45975722  0.46628556  0.30526933     0.88300
C26         C  0.54553164  0.54943770  0.22350373     0.88400
C27         C  0.74185534  0.00561519  0.48086326     0.80800
N28         N  0.72730998  0.00788706  0.00822440    -0.77500
C29         C  0.69703135  0.00911108  0.00777196     0.83200
N30         N  0.68134766  0.00749341  0.47992057    -0.77500
C31         C  0.69520989  0.00496197  0.45254320     0.83300
N32         N  0.72579445  0.00425751  0.45298598    -0.79200
C33         C  0.27272138  0.01399724  0.47557457     0.80800
N34         N  0.29012978  0.01547163  0.00255234    -0.77500
C35         C  0.32038368  0.01427848  0.00178808     0.83200
N36         N  0.33295016  0.01152539  0.47374564    -0.77500
C37         C  0.31621568  0.01058317  0.44674395     0.83300
N38         N  0.28610898  0.01191525  0.44756703    -0.79200
O39         O  0.55306472  0.04076685  0.26124962    -0.73900
O40         O  0.49305007  0.04210727  0.19620479    -0.73900
O41         O  0.49176596  0.04165161  0.25965382    -0.74000
O42         O  0.55426562  0.04130007  0.19762955    -0.74000
O43         O  0.52328763  0.98268365  0.19679541    -0.73900
O44         O  0.46258201  0.98289257  0.26050497    -0.73900
O45         O  0.46208220  0.98379451  0.19723363    -0.73900
O46         O  0.52362743  0.98210269  0.26035853    -0.74000
Ni47       Ni  0.52413393  0.04355905  0.22869688     1.25400
Ni48       Ni  0.49186536  0.98080417  0.22867546     1.25400
C49         C  0.54831043  0.01116840  0.27146379     0.88300
C50         C  0.46712523  0.01318041  0.18619003     0.88200
C51         C  0.46703333  0.01229139  0.27031350     0.88300
C52         C  0.54891698  0.01188290  0.18680248     0.88400
C53         C  0.01097566  0.27116227  0.50845841     0.80800
N54         N  0.00953132  0.28575392  0.48065224    -0.77500
C55         C  0.00957627  0.31666689  0.48020241     0.83200
N56         N  0.01143412  0.33301359  0.50749188    -0.77500
C57         C  0.01342478  0.31901604  0.03533543     0.83300
N58         N  0.01292963  0.28780526  0.03580316    -0.79200
C59         C  0.01118836  0.74248477  0.00531039     0.80800
N60         N  0.01096646  0.72662310  0.03285639    -0.77500
C61         C  0.01239784  0.69649350  0.03286172     0.83200
N62         N  0.01427704  0.68247246  0.00530219    -0.77500
C63         C  0.01492005  0.69819561  0.47763588     0.83300
N64         N  0.01311559  0.72823924  0.47768386    -0.79200
O65         O  0.98258232  0.46206111  0.22422570    -0.73900
O66         O  0.98118242  0.52254607  0.28769130    -0.73900
O67         O  0.98241239  0.52364793  0.22436754    -0.74000
O68         O  0.98128437  0.46088132  0.28771273    -0.74000
O69         O  0.03988666  0.49126744  0.28956828    -0.73900
O70         O  0.04107158  0.55251570  0.22473557    -0.73900
O71         O  0.03982390  0.55293886  0.28798214    -0.73900
O72         O  0.04118628  0.49096906  0.22619239    -0.74000
Ni73       Ni  0.97975922  0.49119734  0.25596121     1.25400
Ni74       Ni  0.04257289  0.52295557  0.25717366     1.25400
C75         C  0.01213443  0.46651055  0.21484878     0.88300
C76         C  0.01030495  0.54795447  0.29798934     0.88200
C77         C  0.01193542  0.54834720  0.21412545     0.88300
C78         C  0.01041544  0.46587876  0.29918676     0.88400
C79         C  0.03793252  0.03703034  0.50008882     0.02800
C80         C  0.00519975  0.03682872  0.50014947     0.02800
C81         C  0.97261131  0.00398124  0.49878196     0.02800
C82         C  0.97297327  0.97141135  0.49895697     0.02800
C83         C  0.00571761  0.97155465  0.49884140     0.02800
C84         C  0.03818419  0.00448855  0.49844974     0.02800
C85         C  0.01489145  0.89108867  0.47682424    -0.04900
C86         C  0.00357635  0.87073633  0.50435592     0.09200
C87         C  0.99327936  0.88311799  0.03007840    -0.02300
C88         C  0.99418997  0.91574980  0.02829236    -0.00600
C89         C  0.00565592  0.93680788  0.50059726    -0.04200
C90         C  0.01659225  0.92404029  0.47499421     0.02800
C91         C  0.00478818  0.83725215  0.50656793     0.09700
C92         C  0.98290067  0.86265756  0.05889374     0.35600
C93         C  0.02878184  0.94327167  0.44585993     0.39000
C94         C  0.03716698  0.83877030  0.51229947    -0.04500
C95         C  0.03923471  0.80776957  0.51184852     0.02600
C96         C  0.00895461  0.77502285  0.50559629    -0.04100
C97         C  0.97639968  0.77332059  0.00051644    -0.00400
C98         C  0.97432027  0.80437206  0.00095557    -0.02900
C99         C  0.06848533  0.87244395  0.51822480     0.36300
C100        C  0.94499652  0.73953472  0.99515514     0.39900
C101        C  0.07268464  0.80963662  0.51730994     0.39100
C102        C  0.94097574  0.80260969  0.99520346     0.36000
C103        C  0.02469962  0.87768951  0.45007372     0.36700
C104        C  0.98694199  0.92888750  0.05652226     0.39900
N105        N  0.09942361  0.81120909  0.52159102    -0.38100
N106        N  0.09344796  0.89936621  0.52283536    -0.39700
N107        N  0.91993142  0.71254184  0.99100397    -0.37500
N108        N  0.91432255  0.80111331  0.99059630    -0.39900
N109        N  0.97474187  0.84635590  0.08187925    -0.39600
N110        N  0.98300938  0.93875733  0.08033736    -0.37300
N111        N  0.03789855  0.95552661  0.42120644    -0.38300
N112        N  0.03237473  0.86682181  0.42884035    -0.40000
C113        C  0.02955141  0.63164127  0.34062923    -0.04900
C114        C  0.01138193  0.61777517  0.36898860     0.09200
C115        C  0.99193920  0.58095530  0.37359811    -0.02300
C116        C  0.99128851  0.55810266  0.35026993    -0.00600
C117        C  0.00992055  0.57194743  0.32203757    -0.04200
C118        C  0.02876650  0.60881797  0.31715909     0.02800
C119        C  0.01458305  0.64180479  0.39506641     0.09700
C120        C  0.97326262  0.56667521  0.40276830     0.35600
C121        C  0.04695479  0.62328449  0.28780300     0.39000
C122        C  0.99149401  0.65517477  0.39690327    -0.04500
C123        C  0.99253870  0.67504407  0.42318406     0.02600
C124        C  0.01671097  0.68157289  0.44788961    -0.04100
C125        C  0.04089167  0.66938815  0.44517137    -0.00400
C126        C  0.03982449  0.64970183  0.41885134    -0.02900
C127        C  0.96603221  0.64762579  0.37206338     0.36300
C128        C  0.06705526  0.67705633  0.46941842     0.39900
C129        C  0.96739561  0.68702329  0.42540926     0.39100
C130        C  0.06437876  0.63695554  0.41633384     0.36000
C131        C  0.04955900  0.66945606  0.33592051     0.36700
C132        C  0.97290618  0.52040971  0.35601842     0.39900
N133        N  0.94726889  0.69652695  0.42702660    -0.38100
N134        N  0.94574689  0.64163230  0.35221328    -0.39700
N135        N  0.08788115  0.68297547  0.48874241    -0.37500
N136        N  0.08385941  0.62670086  0.41411528    -0.39900
N137        N  0.95844380  0.55536698  0.42608881    -0.39600
N138        N  0.95842380  0.49035332  0.36058047    -0.37300
N139        N  0.06141030  0.63476762  0.26435634    -0.38300
N140        N  0.06553973  0.69964632  0.33223501    -0.40000
C141        C  0.99374922  0.61307343  0.17000115    -0.04900
C142        C  0.01206916  0.61733038  0.14188069     0.09200
C143        C  0.03115826  0.59977419  0.13782377    -0.02300
C144        C  0.03128846  0.57734274  0.16152816    -0.00600
C145        C  0.01240103  0.57249071  0.18949873    -0.04200
C146        C  0.99390241  0.59070163  0.19380906     0.02800
C147        C  0.01017987  0.63908320  0.11573240     0.09700
C148        C  0.05034133  0.60457474  0.10899880     0.35600
C149        C  0.97579489  0.58715075  0.22305144     0.39000
C150        C  0.03641847  0.67476109  0.11245469    -0.04500
C151        C  0.03652287  0.69417862  0.08590418     0.02600
C152        C  0.01045728  0.67779675  0.06247623    -0.04100
C153        C  0.98344534  0.64242810  0.06646695    -0.00400
C154        C  0.98324647  0.62320099  0.09309495    -0.02900
C155        C  0.06376212  0.69108508  0.13607658     0.36300
C156        C  0.95576416  0.62578302  0.04313779     0.39900
C157        C  0.06442091  0.73040829  0.08204097     0.39100
C158        C  0.95568601  0.58679665  0.09700526     0.36000
C159        C  0.97477913  0.63176258  0.17432818     0.36700
C160        C  0.04977391  0.55823184  0.15659197     0.39900
N161        N  0.08680862  0.75929978  0.07913733    -0.38100
N162        N  0.08553423  0.70397678  0.15498110    -0.39700
N163        N  0.93377815  0.61259345  0.02445296    -0.37500
N164        N  0.93369329  0.55777999  0.10022313    -0.39900
N165        N  0.06565804  0.60855182  0.08598960    -0.39600
N166        N  0.06444414  0.54292547  0.15266897    -0.37300
N167        N  0.96145876  0.58435537  0.24643155    -0.38300
N168        N  0.95970829  0.64674781  0.17775249    -0.40000
C169        C  0.97704945  0.17282507  0.01390544    -0.04900
C170        C  0.00784309  0.17156833  0.50769349     0.09200
C171        C  0.03983834  0.20316968  0.50251853    -0.02300
C172        C  0.04097669  0.23581973  0.50324725    -0.00600
C173        C  0.01005548  0.23701330  0.50883823    -0.04200
C174        C  0.97806100  0.20543797  0.01405721     0.02800
C175        C  0.00651618  0.13687289  0.50595981     0.09700
C176        C  0.07153105  0.20197373  0.49624645     0.35600
C177        C  0.94602084  0.20648916  0.01877644     0.39000
C178        C  0.99513863  0.11693987  0.47834191    -0.04500
C179        C  0.99426481  0.08442015  0.47636209     0.02600
C180        C  0.00522621  0.07139468  0.50213103    -0.04100
C181        C  0.01652935  0.09191587  0.02993082    -0.00400
C182        C  0.01709833  0.12427904  0.03171168    -0.02900
C183        C  0.98514947  0.13059881  0.45151658     0.36300
C184        C  0.02513570  0.07919503  0.05803718     0.39900
C185        C  0.98406750  0.06626591  0.44670163     0.39100
C186        C  0.02811782  0.14463135  0.06040671     0.36000
C187        C  0.94443126  0.14055016  0.02044400     0.36700
C188        C  0.07399094  0.26822364  0.49827686     0.39900
N189        N  0.97700315  0.05454195  0.42176254    -0.38100
N190        N  0.97727542  0.14159412  0.43017185    -0.39700
N191        N  0.03057076  0.07021005  0.08193856    -0.37500
N192        N  0.03685989  0.16086164  0.08327157    -0.39900
N193        N  0.09679767  0.20097418  0.49125891    -0.39600
N194        N  0.10040172  0.29404166  0.49440097    -0.37300
N195        N  0.92043219  0.20735035  0.02229002    -0.38300
N196        N  0.91844534  0.11484828  0.02592166    -0.40000
C197        C  0.03402269  0.40489466  0.17092826    -0.04900
C198        C  0.01550652  0.40019174  0.14258971     0.09200
C199        C  0.99546088  0.41680771  0.13816062    -0.02300
C200        C  0.99437367  0.43851287  0.16173986    -0.00600
C201        C  0.01281357  0.44319506  0.19022328    -0.04200
C202        C  0.03240385  0.42602890  0.19482872     0.02800
C203        C  0.01755380  0.37835751  0.11688309     0.09700
C204        C  0.97614697  0.41169401  0.10911751     0.35600
C205        C  0.05006095  0.42925677  0.22451415     0.39000
C206        C  0.99378836  0.34176045  0.11594608    -0.04500
C207        C  0.99327342  0.32183181  0.08993614     0.02600
C208        C  0.01659574  0.33851729  0.06467065    -0.04100
C209        C  0.04155427  0.37495592  0.06648601    -0.00400
C210        C  0.04200530  0.39471854  0.09250023    -0.02900
C211        C  0.96924621  0.32489430  0.14146514     0.36300
C212        C  0.06694357  0.39225648  0.04158110     0.39900
C213        C  0.96745348  0.28459674  0.08854654     0.39100
C214        C  0.06731602  0.43211994  0.09404153     0.36000
C215        C  0.05493985  0.38814904  0.17530765     0.36700
C216        C  0.97545470  0.45718145  0.15610283     0.39900
N217        N  0.94678145  0.25489127  0.08755768    -0.38100
N218        N  0.94976652  0.31158146  0.16192804    -0.39700
N219        N  0.08707688  0.40602197  0.52164058    -0.37500
N220        N  0.08751344  0.46194203  0.09533248    -0.39900
N221        N  0.96073171  0.40748745  0.08593637    -0.39600
N222        N  0.96052808  0.47222325  0.15157686    -0.37300
N223        N  0.06397245  0.43174992  0.24827621    -0.38300
N224        N  0.07169823  0.37484026  0.17871125    -0.40000
C225        C  0.03582047  0.36666199  0.40292225    -0.04900
C226        C  0.00758095  0.37275654  0.39796841     0.09200
C227        C  0.97865806  0.35771501  0.41854145    -0.02300
C228        C  0.97859158  0.33780007  0.44462452    -0.00600
C229        C  0.00753558  0.33299087  0.45037825    -0.04200
C230        C  0.03586733  0.34690009  0.42914313     0.02800
C231        C  0.00906901  0.39658712  0.37205185     0.09700
C232        C  0.94941451  0.36359868  0.41330740     0.35600
C233        C  0.06588286  0.34246861  0.43511284     0.39000
C234        C  0.99015147  0.38246370  0.34399569    -0.04500
C235        C  0.99048477  0.40506430  0.32014556     0.02600
C236        C  0.01006286  0.44199695  0.32415395    -0.04100
C237        C  0.02939816  0.45608400  0.35213164    -0.00400
C238        C  0.02884760  0.43343008  0.37598896    -0.02900
C239        C  0.97065203  0.34462518  0.33963800     0.36300
C240        C  0.04890321  0.49389347  0.35690328     0.39900
C241        C  0.97146382  0.39027846  0.29113597     0.39100
C242        C  0.04840882  0.44797812  0.40480853     0.36000
C243        C  0.06521103  0.38156371  0.38140633     0.36700
C244        C  0.94876200  0.32230805  0.46569175     0.39900
N245        N  0.95630874  0.37852146  0.26798172    -0.38100
N246        N  0.95517559  0.31442426  0.33621884    -0.39700
N247        N  0.06441709  0.52404538  0.36066257    -0.37500
N248        N  0.06408606  0.45950630  0.42777543    -0.39900
N249        N  0.92609852  0.36830290  0.40908064    -0.39600
N250        N  0.92499627  0.30984131  0.48251510    -0.37300
N251        N  0.08995074  0.33910810  0.43983002    -0.38300
N252        N  0.08863855  0.39357130  0.36421024    -0.40000
C253        C  0.20526375  0.04072693  0.99622897    -0.04900
C254        C  0.17512262  0.01482856  0.48041109     0.09200
C255        C  0.17720126  0.98920176  0.46238116    -0.02300
C256        C  0.20914096  0.98912240  0.46051461    -0.00600
C257        C  0.23932165  0.01475061  0.47672462    -0.04200
C258        C  0.23721797  0.04066022  0.99450659     0.02800
C259        C  0.14033318  0.01249338  0.48505728     0.09700
C260        C  0.14602169  0.96218791  0.44658418     0.35600
C261        C  0.26794025  0.06746009  0.01096518     0.39000
C262        C  0.12567539  0.02387298  0.46159096    -0.04500
C263        C  0.09214311  0.02007592  0.46572474     0.02600
C264        C  0.07304158  0.00574660  0.49393647    -0.04100
C265        C  0.08809684  0.99384458  0.01722538    -0.00400
C266        C  0.12141721  0.99728918  0.01266111    -0.02900
C267        C  0.14503398  0.03905171  0.43286673     0.36300
C268        C  0.07088197  0.97857306  0.04657657     0.39900
C269        C  0.07612377  0.02772624  0.43936659     0.39100
C270        C  0.13660029  0.98513421  0.03660896     0.36000
C271        C  0.20309566  0.06701643  0.01485545     0.36700
C272        C  0.21027475  0.96140191  0.44329347     0.39900
N273        N  0.06341917  0.03203556  0.41719750    -0.38100
N274        N  0.16048345  0.05112326  0.40995655    -0.39700
N275        N  0.06034659  0.96669063  0.07110164    -0.37500
N276        N  0.14884549  0.97559495  0.05562569    -0.39900
N277        N  0.12107317  0.94075082  0.43401486    -0.39600
N278        N  0.21108922  0.93919608  0.42964039    -0.37300
N279        N  0.29239794  0.08873612  0.02421922    -0.38300
N280        N  0.20130836  0.08786781  0.02983660    -0.40000
C281        C  0.34694645  0.97942935  0.37806128    -0.04900
C282        C  0.37435038  0.01179433  0.36639141     0.09200
C283        C  0.37993906  0.04373703  0.37918397    -0.02300
C284        C  0.35909518  0.04326006  0.40426154    -0.00600
C285        C  0.33284056  0.01089148  0.41681835    -0.04200
C286        C  0.32632975  0.97899627  0.40334949     0.02800
C287        C  0.39829400  0.01216355  0.34154273     0.09700
C288        C  0.40800879  0.07703887  0.36730561     0.35600
C289        C  0.29916928  0.94576634  0.41621314     0.39000
C290        C  0.39514726  0.02124765  0.31037659    -0.04500
C291        C  0.41772790  0.02143183  0.28702726     0.02600
C292        C  0.44334530  0.01223044  0.29470219    -0.04100
C293        C  0.44606005  0.00253110  0.32575282    -0.00400
C294        C  0.42405302  0.00314538  0.34922430    -0.02900
C295        C  0.36848061  0.03018337  0.30237808     0.36300
C296        C  0.47135561  0.99167919  0.33355219     0.39900
C297        C  0.41355635  0.02967683  0.25489095     0.39100
C298        C  0.42816603  0.99492303  0.38142341     0.36000
C299        C  0.34069589  0.94657986  0.36458876     0.36700
C300        C  0.36538313  0.07606036  0.41792218     0.39900
N301        N  0.40963705  0.03597715  0.22931111    -0.38100
N302        N  0.34727165  0.03744133  0.29612783    -0.39700
N303        N  0.49120835  0.98262658  0.33984980    -0.37500
N304        N  0.43145803  0.98844844  0.40713211    -0.39900
N305        N  0.43038668  0.10359557  0.35778083    -0.39600
N306        N  0.37029637  0.10214264  0.42890647    -0.37300
N307        N  0.27750368  0.91927259  0.42651807    -0.38300
N308        N  0.33589712  0.92040818  0.35390322    -0.40000
C309        C  0.41930965  0.04557190  0.13124264    -0.04900
C310        C  0.39928490  0.01572313  0.11251594     0.09200
C311        C  0.39979313  0.98451131  0.11880796    -0.02300
C312        C  0.42051904  0.98307479  0.14353115    -0.00600
C313        C  0.44275180  0.01373451  0.16140675    -0.04200
C314        C  0.44139267  0.04496994  0.15514352     0.02800
C315        C  0.37886216  0.01751679  0.08503512     0.09700
C316        C  0.37927930  0.95385321  0.09924970     0.35600
C317        C  0.46190151  0.07666756  0.17344024     0.39000
C318        C  0.39668136  0.03495477  0.05744274    -0.04500
C319        C  0.37769265  0.03526040  0.03083501     0.02600
C320        C  0.34034579  0.01669685  0.03106794    -0.04100
C321        C  0.32257816  0.99947666  0.05902374    -0.00400
C322        C  0.34185456  0.00045029  0.08599487    -0.02900
C323        C  0.43472930  0.05187137  0.05619703     0.36300
C324        C  0.28448137  0.97916744  0.05985393     0.39900
C325        C  0.39704169  0.05525077  0.00344504     0.39100
C326        C  0.32363702  0.98325959  0.11469541     0.36000
C327        C  0.41702303  0.07702081  0.12581030     0.36700
C328        C  0.41837752  0.94959910  0.15004659     0.39900
N329        N  0.41260202  0.07116313  0.48167307    -0.38100
N330        N  0.46504134  0.06525591  0.05521351    -0.39700
N331        N  0.25409552  0.96283931  0.06057798    -0.37500
N332        N  0.30919655  0.96951522  0.13761166    -0.39900
N333        N  0.36289076  0.92950637  0.08360181    -0.39600
N334        N  0.41599478  0.92258489  0.15520755    -0.37300
N335        N  0.47809177  0.10207010  0.18791279    -0.38300
N336        N  0.41505801  0.10200502  0.12148850    -0.40000
C337        C  0.83870324  0.03284319  0.47483206    -0.04900
C338        C  0.83834816  0.00235735  0.48605797     0.09200
C339        C  0.80605853  0.97243476  0.99430236    -0.02300
C340        C  0.77439789  0.97316320  0.99166935    -0.00600
C341        C  0.77491486  0.00417271  0.48165559    -0.04200
C342        C  0.80720926  0.03396623  0.47311518     0.04900
C343        C  0.87217258  0.00203570  0.48963460     0.09700
C344        C  0.80554534  0.94094416  0.00552838     0.35600
C345        C  0.80823563  0.06614359  0.46337035     0.39000
C346        C  0.89202352  0.01432498  0.01734264    -0.04500
C347        C  0.92434057  0.01494549  0.02068015     0.02600
C348        C  0.93768679  0.00342173  0.49596549    -0.04100
C349        C  0.91723918  0.99128980  0.46799457    -0.00400
C350        C  0.88468999  0.99025941  0.46512494    -0.02900
C351        C  0.87878763  0.02615203  0.04274552     0.36300
C352        C  0.93052075  0.98273172  0.44062872     0.39900
C353        C  0.94215687  0.02636228  0.05049010     0.39100
C354        C  0.86412807  0.97769224  0.43650729     0.36000
C355        C  0.87155816  0.06295728  0.46479883     0.36700
C356        C  0.74116114  0.94167241  0.99839211     0.39900
N357        N  0.95336565  0.03485974  0.07553506    -0.38100
N358        N  0.86828743  0.03557280  0.06300979    -0.39700
N359        N  0.94028025  0.97742236  0.41736037    -0.37500
N360        N  0.84761208  0.96768456  0.41375391    -0.39900
N361        N  0.80524246  0.91588362  0.01453292    -0.39600
N362        N  0.71464364  0.91635475  0.00337961    -0.37300
N363        N  0.80932228  0.09201908  0.45581178    -0.38300
N364        N  0.89775371  0.08682333  0.45650967    -0.40000
C365        C  0.61900931  0.98037348  0.39617076    -0.04900
C366        C  0.63565602  0.00460567  0.37154039     0.09200
C367        C  0.67254850  0.02646759  0.37179673    -0.02300
C368        C  0.69263597  0.02527919  0.39732425    -0.00600
C369        C  0.67578193  0.00234951  0.42293763    -0.04200
C370        C  0.63890924  0.97914266  0.42168968     0.02800
C371        C  0.61411497  0.00715153  0.34538265     0.09700
C372        C  0.68964044  0.05069886  0.34595828     0.35600
C373        C  0.62128454  0.95366989  0.44664993     0.39000
C374        C  0.60025830  0.02981086  0.34794775    -0.04500
C375        C  0.57939138  0.03174875  0.32357002     0.02600
C376        C  0.57158973  0.01039377  0.29665097    -0.04100
C377        C  0.58560973  0.98772674  0.29420381    -0.00400
C378        C  0.60696255  0.98635061  0.31838666    -0.02900
C379        C  0.60710734  0.05075486  0.37598653     0.36300
C380        C  0.57886649  0.96637851  0.26645297     0.39900
C381        C  0.56490996  0.05479425  0.32686661     0.39100
C382        C  0.62169640  0.96349987  0.31560543     0.36000
C383        C  0.58121494  0.95695396  0.39538157     0.36700
C384        C  0.73037349  0.04867903  0.39757496     0.39900
N385        N  0.55328771  0.07310183  0.32952878    -0.38100
N386        N  0.61247833  0.06735676  0.39841250    -0.39700
N387        N  0.57343855  0.94929958  0.24434043    -0.37500
N388        N  0.63361863  0.94540520  0.31348658    -0.39900
N389        N  0.70307191  0.06995056  0.32524628    -0.39600
N390        N  0.76050669  0.06740678  0.39730152    -0.37300
N391        N  0.60732325  0.93346391  0.46662609    -0.38300
N392        N  0.55107424  0.93824825  0.39474120    -0.40000
C393        C  0.64716176  0.03532485  0.06365486    -0.04900
C394        C  0.64050145  0.01206208  0.08897792     0.09200
C395        C  0.65468603  0.98956939  0.08887135    -0.02300
C396        C  0.67444721  0.98941755  0.06297190    -0.00600
C397        C  0.68032692  0.01202563  0.03703473    -0.04200
C398        C  0.66711542  0.03552826  0.03792190     0.02800
C399        C  0.61729437  0.01057162  0.11512656     0.09700
C400        C  0.64812461  0.96595146  0.11515842     0.35600
C401        C  0.67401641  0.06016276  0.01236313     0.39000
C402        C  0.58054279  0.98875337  0.11250413    -0.04500
C403        C  0.55826078  0.98951577  0.13566268     0.02600
C404        C  0.57258624  0.01150895  0.16216910    -0.04100
C405        C  0.60956726  0.03308982  0.16488000    -0.00400
C406        C  0.63175041  0.03272689  0.14132735    -0.02900
C407        C  0.56564695  0.96594347  0.08553532     0.36300
C408        C  0.62498559  0.05533284  0.19208653     0.39900
C409        C  0.52051565  0.96907909  0.13110373     0.39100
C410        C  0.66954067  0.05547488  0.14372988     0.36000
C411        C  0.63275164  0.05862837  0.06389039     0.36700
C412        C  0.68695967  0.96459794  0.06251035     0.39900
N413        N  0.49046097  0.95289047  0.12706553    -0.38100
N414        N  0.55378495  0.94771737  0.06404808    -0.39700
N415        N  0.63734237  0.07314295  0.21375353    -0.37500
N416        N  0.69971093  0.07361816  0.14545727    -0.39900
N417        N  0.64289165  0.94713039  0.13615691    -0.39600
N418        N  0.69675254  0.94461681  0.06247990    -0.37300
N419        N  0.67935170  0.07971080  0.99195030    -0.38300
N420        N  0.62112037  0.07708483  0.06416506    -0.40000
C421        C  0.88304540  0.89593899  0.02633440    -0.04900
C422        C  0.87369813  0.87157366  0.50192907     0.09200
C423        C  0.89629451  0.87961545  0.47625174    -0.02300
C424        C  0.92781553  0.91237123  0.47456956    -0.00600
C425        C  0.93847537  0.93667335  0.49979963    -0.04200
C426        C  0.91577907  0.92741864  0.02605655     0.02800
C427        C  0.84015495  0.83704228  0.50379140     0.09700
C428        C  0.88691115  0.85401718  0.45137542     0.35600
C429        C  0.92638631  0.94815549  0.05432279     0.39000
C430        C  0.81085273  0.83114470  0.48558975    -0.04500
C431        C  0.77868216  0.79923381  0.48857051     0.02600
C432        C  0.77549724  0.77300615  0.51011770    -0.04100
C433        C  0.80523245  0.77899938  0.02804625    -0.00400
C434        C  0.83738035  0.81082694  0.02478208    -0.02900
C435        C  0.81374376  0.85835217  0.46421165     0.36300
C436        C  0.80328386  0.75217828  0.04936903     0.39900
C437        C  0.74869646  0.79413762  0.47005211     0.39100
C438        C  0.86776625  0.81681187  0.04318129     0.36000
C439        C  0.85879218  0.88829112  0.05206448     0.36700
C440        C  0.94760073  0.92076239  0.44582409     0.39900
N441        N  0.72490344  0.79013779  0.45512255    -0.38100
N442        N  0.81623985  0.88011606  0.44716995    -0.39700
N443        N  0.80181445  0.73090508  0.06647591    -0.37500
N444        N  0.89202097  0.82176648  0.05789131    -0.39900
N445        N  0.87951333  0.83365789  0.43153755    -0.39600
N446        N  0.96090917  0.92561443  0.42160087    -0.37300
N447        N  0.93327637  0.96208790  0.07835293    -0.38300
N448        N  0.83932696  0.88215085  0.07243636    -0.40000
C449        C  0.59870389  0.62911757  0.35748521    -0.04900
C450        C  0.60590753  0.61387837  0.38359748     0.09200
C451        C  0.59178679  0.57714434  0.38505665    -0.02300
C452        C  0.57036081  0.55558508  0.36054224    -0.00600
C453        C  0.56361215  0.57078962  0.33393699    -0.04200
C454        C  0.57793831  0.60772558  0.33253009     0.02800
C455        C  0.62829218  0.63633998  0.40990908     0.09700
C456        C  0.59929673  0.56159041  0.41199784     0.35600
C457        C  0.57232798  0.62395071  0.30502344     0.39000
C458        C  0.61253448  0.64178685  0.43621255    -0.04500
C459        C  0.63327048  0.66055192  0.46220940     0.02600
C460        C  0.66999348  0.67367229  0.46219100    -0.04100
C461        C  0.68580559  0.66889686  0.43536098    -0.00400
C462        C  0.66496806  0.65038383  0.40928943    -0.02900
C463        C  0.57480667  0.62756535  0.43659541     0.36300
C464        C  0.72324143  0.68151334  0.43499658     0.39900
C465        C  0.61672081  0.66681776  0.48870693     0.39100
C466        C  0.68106956  0.64498870  0.38199026     0.36000
C467        C  0.61264925  0.66684488  0.35642621     0.36700
C468        C  0.55417300  0.51762928  0.36343327     0.39900
N469        N  0.60352374  0.67178636  0.50984555    -0.38100
N470        N  0.54470027  0.61612840  0.43684386    -0.39700
N471        N  0.75310091  0.69154552  0.43470808    -0.37500
N472        N  0.69381359  0.64064486  0.36016413    -0.39900
N473        N  0.60543230  0.54934604  0.43351281    -0.39600
N474        N  0.54114333  0.48736744  0.36584152    -0.37300
N475        N  0.56789165  0.63684805  0.28302868    -0.38300
N476        N  0.62366849  0.69693194  0.35566509    -0.40000
C477        C  0.65194978  0.67517900  0.12328172    -0.04900
C478        C  0.64477396  0.64052953  0.12917066     0.09200
C479        C  0.66020124  0.62591060  0.11016816    -0.02300
C480        C  0.68008458  0.64458847  0.08376385    -0.00600
C481        C  0.68474106  0.67802271  0.07633225    -0.04200
C482        C  0.67208626  0.69400372  0.09695950     0.02800
C483        C  0.61913087  0.61841418  0.15401610     0.09700
C484        C  0.65494680  0.59131756  0.11751349     0.35600
C485        C  0.67853971  0.72918511  0.09036071     0.39000
C486        C  0.58322231  0.59690352  0.14624693    -0.04500
C487        C  0.55906658  0.57460955  0.16906459     0.02600
C488        C  0.57070994  0.57366817  0.19979246    -0.04100
C489        C  0.60658770  0.59543924  0.20763769    -0.00400
C490        C  0.63071271  0.61780949  0.18479797    -0.02900
C491        C  0.57131033  0.59736691  0.11454114     0.36300
C492        C  0.61856506  0.59518882  0.23935690     0.39900
C493        C  0.52246538  0.55158434  0.16060642     0.39100
C494        C  0.66752965  0.64007404  0.19279035     0.36000
C495        C  0.63780152  0.69100385  0.14386992     0.36700
C496        C  0.69585943  0.62949240  0.06419000     0.39900
N497        N  0.49329376  0.53309228  0.15388730    -0.38100
N498        N  0.56193352  0.59778901  0.08921027    -0.39700
N499        N  0.62806423  0.59497827  0.26468361    -0.37500
N500        N  0.69694169  0.65790926  0.19905800    -0.39900
N501        N  0.65082739  0.56377334  0.12353822    -0.39600
N502        N  0.70868960  0.61763346  0.04865870    -0.37300
N503        N  0.68392176  0.75734153  0.08508256    -0.38300
N504        N  0.62659237  0.70366232  0.16037886    -0.40000
C505        C  0.11760332  0.12938406  0.48231569    -0.04900
C506        C  0.13845703  0.13542826  0.50920420     0.09200
C507        C  0.12657750  0.10998484  0.03318956    -0.02300
C508        C  0.09391868  0.07847725  0.03035611    -0.00600
C509        C  0.07265887  0.07156754  0.50306972    -0.04200
C510        C  0.08518067  0.09771837  0.47900554     0.02800
C511        C  0.17314646  0.16881064  0.51200886     0.09700
C512        C  0.14801092  0.11655895  0.06111918     0.35600
C513        C  0.06647608  0.09266715  0.44980801     0.39000
C514        C  0.17632366  0.19683368  0.03032515    -0.04500
C515        C  0.20837161  0.22916688  0.03117675     0.02600
C516        C  0.23773337  0.23346322  0.51412409    -0.04100
C517        C  0.23476915  0.20480070  0.49673237    -0.00400
C518        C  0.20246881  0.17285227  0.49529858    -0.02900
C519        C  0.14630423  0.19249361  0.04787277     0.36300
C520        C  0.26522379  0.20768132  0.48102618     0.39900
C521        C  0.21052433  0.25836701  0.04862684     0.39100
C522        C  0.19918847  0.14419147  0.47620552     0.36000
C523        C  0.12987200  0.15606777  0.45778392     0.36700
C524        C  0.08180160  0.05458755  0.05684358     0.39900
N525        N  0.21218706  0.28165267  0.06252193    -0.38100
N526        N  0.12235169  0.18886045  0.06196795    -0.39700
N527        N  0.28955576  0.20992419  0.46863562    -0.37500
N528        N  0.19649786  0.12146268  0.46074781    -0.39900
N529        N  0.16506635  0.12192207  0.08341954    -0.39600
N530        N  0.07295463  0.03738717  0.07929235    -0.37300
N531        N  0.05446122  0.09124966  0.42528211    -0.38300
N532        N  0.13972210  0.17735852  0.43829724    -0.40000
C533        C  0.39297436  0.38286989  0.34727218    -0.04900
C534        C  0.39407440  0.39573553  0.37766586     0.09200
C535        C  0.41504432  0.43210931  0.38370617    -0.02300
C536        C  0.43571838  0.45541316  0.35969931    -0.00600
C537        C  0.43554992  0.44239360  0.32955416    -0.04200
C538        C  0.41357821  0.40619293  0.32319444     0.02800
C539        C  0.37331478  0.37112415  0.40361487     0.09700
C540        C  0.41552378  0.44540564  0.41480202     0.35600
C541        C  0.41152604  0.39315787  0.29167887     0.39000
C542        C  0.38945425  0.35818617  0.42423841    -0.04500
C543        C  0.37115111  0.33805610  0.45069573     0.02600
C544        C  0.33634036  0.33016343  0.45628754    -0.04100
C545        C  0.31984112  0.34222527  0.43509438    -0.00400
C546        C  0.33836065  0.36276470  0.40887012    -0.02900
C547        C  0.42525223  0.36641579  0.41859485     0.36300
C548        C  0.28469746  0.33559600  0.44143889     0.39900
C549        C  0.38837859  0.32603521  0.47253290     0.39100
C550        C  0.32205287  0.37659612  0.38793424     0.36000
C551        C  0.37080909  0.34561002  0.34093529     0.36700
C552        C  0.45789468  0.49265585  0.36624679     0.39900
N553        N  0.40214649  0.31660958  0.99007846    -0.38100
N554        N  0.45381086  0.37299837  0.41406066    -0.39700
N555        N  0.25674406  0.33044562  0.44666874    -0.37500
N556        N  0.30919344  0.38780233  0.37123298    -0.39900
N557        N  0.41579258  0.45586248  0.43965144    -0.39600
N558        N  0.47553563  0.52236899  0.37144326    -0.37300
N559        N  0.40968151  0.38282788  0.26647901    -0.38300
N560        N  0.35308302  0.31586347  0.33593628    -0.40000
C561        C  0.36971866  0.39299212  0.09619347    -0.04900
C562        C  0.37054295  0.37544789  0.12362920     0.09200
C563        C  0.35087711  0.33840697  0.12525854    -0.02300
C564        C  0.33222097  0.31873393  0.09868572    -0.00600
C565        C  0.33275830  0.33623483  0.07042332    -0.04200
C566        C  0.35055585  0.37361644  0.06986176     0.02800
C567        C  0.39352731  0.39644170  0.15024904     0.09700
C568        C  0.35040976  0.32063044  0.15420152     0.35600
C569        C  0.34894425  0.39253697  0.04241499     0.39000
C570        C  0.37980426  0.40726779  0.17460811    -0.04500
C571        C  0.40229689  0.42996840  0.19809668     0.02600
C572        C  0.43885919  0.44217199  0.19721231    -0.04100
C573        C  0.45235268  0.43061461  0.17295082    -0.00400
C574        C  0.42972092  0.40788118  0.14958100    -0.02900
C575        C  0.34255063  0.39551002  0.17504400     0.36300
C576        C  0.48972845  0.44314261  0.17109603     0.39900
C577        C  0.38747512  0.44008508  0.22343709     0.39100
C578        C  0.44377123  0.39698598  0.12417326     0.36000
C579        C  0.38920152  0.43121255  0.09501519     0.36700
C580        C  0.31386203  0.28058998  0.10031406     0.39900
N581        N  0.37559893  0.44814991  0.24360362    -0.38100
N582        N  0.31282722  0.38609586  0.17528152    -0.39700
N583        N  0.51951241  0.45304933  0.16960760    -0.37500
N584        N  0.45489973  0.38838726  0.10379085    -0.39900
N585        N  0.34988793  0.30650933  0.17737647    -0.39600
N586        N  0.29917983  0.25015526  0.10172213    -0.37300
N587        N  0.34780230  0.40771149  0.02055629    -0.38300
N588        N  0.40487836  0.46166868  0.09419693    -0.40000
C589        C  0.27127775  0.26785803  0.01390431     0.80800
N590        N  0.28571682  0.28516664  0.54118110    -0.77500
C591        C  0.31672549  0.31619976  0.54101573     0.83200
N592        N  0.33319045  0.32955117  0.51336064    -0.77500
C593        C  0.31883103  0.31300404  0.98603986     0.83300
N594        N  0.28773953  0.28219893  0.98628852    -0.79200
C595        C  0.74144606  0.73933941  0.51356047     0.80800
N596        N  0.72930636  0.72511221  0.54243305    -0.77500
C597        C  0.69874046  0.69395823  0.54525571     0.83200
N598        N  0.68004419  0.67735456  0.51923891    -0.77500
C599        C  0.69147744  0.69158764  0.99040548     0.83300
N600        N  0.72231330  0.72243132  0.98770875    -0.79200
O601        O  0.51762129  0.55309791  0.79582429    -0.73900
O602        O  0.45821895  0.49176484  0.73113135    -0.73900
O603        O  0.45594185  0.49147879  0.79452993    -0.74000
O604        O  0.52007978  0.55357941  0.73224958    -0.74000
O605        O  0.54960840  0.52463395  0.73481364    -0.73900
O606        O  0.48458208  0.46158811  0.79578513    -0.73900
O607        O  0.48753750  0.46268244  0.73279526    -0.73900
O608        O  0.54624183  0.52329614  0.79807936    -0.74000
Ni609      Ni  0.48694728  0.52356439  0.76331842     1.25400
Ni610      Ni  0.51805803  0.49204656  0.76538893     1.25400
C611        C  0.54145499  0.54801799  0.80789069     0.88300
C612        C  0.46278834  0.46682431  0.72154344     0.88200
C613        C  0.45975254  0.46628675  0.80526761     0.88300
C614        C  0.54553282  0.54943754  0.72350616     0.88400
C615        C  0.74184019  0.00559306  0.98088337     0.80800
N616        N  0.72733027  0.00792159  0.50820270    -0.77500
C617        C  0.69705034  0.00914335  0.50774964     0.83200
N618        N  0.68133399  0.00747554  0.97994314    -0.77500
C619        C  0.69519930  0.00495187  0.95256435     0.83300
N620        N  0.72578351  0.00424645  0.95300636    -0.79200
C621        C  0.27273389  0.01401689  0.97555788     0.80800
N622        N  0.29011968  0.01545187  0.50256731    -0.77500
C623        C  0.32037486  0.01426164  0.50179940     0.83200
N624        N  0.33295994  0.01153949  0.97373589    -0.77500
C625        C  0.31622880  0.01059807  0.94673239     0.83300
N626        N  0.28612339  0.01193299  0.94755194    -0.79200
O627        O  0.55310132  0.04080202  0.76124371    -0.73900
O628        O  0.49307844  0.04213287  0.69620006    -0.73900
O629        O  0.49180225  0.04168702  0.75964954    -0.74000
O630        O  0.55429472  0.04132715  0.69762228    -0.74000
O631        O  0.52332151  0.98271087  0.69679869    -0.73900
O632        O  0.46261674  0.98292801  0.76050456    -0.73900
O633        O  0.46211515  0.98382019  0.69723345    -0.73900
O634        O  0.52366080  0.98213780  0.76036104    -0.74000
Ni635      Ni  0.52416668  0.04359003  0.72869111     1.25400
Ni636      Ni  0.49189920  0.98083528  0.72867687     1.25400
C637        C  0.54834566  0.01120442  0.77146250     0.88300
C638        C  0.46715470  0.01320374  0.68618741     0.88200
C639        C  0.46706976  0.01232807  0.77031139     0.88300
C640        C  0.54894799  0.01190881  0.68679992     0.88400
C641        C  0.01097669  0.27116042  0.00845498     0.80800
N642        N  0.00953454  0.28575387  0.98064915    -0.77500
C643        C  0.00957987  0.31666703  0.98020014     0.83200
N644        N  0.01143601  0.33301220  0.00749021    -0.77500
C645        C  0.01342518  0.31901936  0.53533736     0.83300
N646        N  0.01293054  0.28780881  0.53580605    -0.79200
C647        C  0.01118725  0.74248415  0.50530872     0.80800
N648        N  0.01096506  0.72662094  0.53285389    -0.77500
C649        C  0.01239353  0.69648973  0.53285752     0.83200
N650        N  0.01427028  0.68246879  0.50529704    -0.77500
C651        C  0.01492668  0.69819781  0.97764024     0.83300
N652        N  0.01311940  0.72823992  0.97768647    -0.79200
O653        O  0.98258995  0.46206662  0.72422859    -0.73900
O654        O  0.98119220  0.52255394  0.78769216    -0.73900
O655        O  0.98242091  0.52365352  0.72436841    -0.74000
O656        O  0.98129329  0.46088904  0.78771536    -0.74000
O657        O  0.03989568  0.49127400  0.78956968    -0.73900
O658        O  0.04108010  0.55252122  0.72473601    -0.73900
O659        O  0.03983365  0.55294535  0.78798298    -0.73900
O660        O  0.04119401  0.49097440  0.72619392    -0.74000
Ni661      Ni  0.97976795  0.49120408  0.75596309     1.25400
Ni662      Ni  0.04258167  0.52296161  0.75717468     1.25400
C663        C  0.01214175  0.46651586  0.71485109     0.88300
C664        C  0.01031504  0.54796155  0.79799047     0.88200
C665        C  0.01194382  0.54835219  0.71412553     0.88300
C666        C  0.01042441  0.46588594  0.79918874     0.88400
C667        C  0.03793411  0.03703026  0.00007736     0.02800
C668        C  0.00520090  0.03682824  0.00013930     0.02800
C669        C  0.97261220  0.00398089  0.99877107     0.02800
C670        C  0.97297488  0.97141145  0.99894555     0.02800
C671        C  0.00571935  0.97155481  0.99883004     0.02800
C672        C  0.03818610  0.00448861  0.99843752     0.02800
C673        C  0.01488634  0.89108394  0.97681691    -0.04900
C674        C  0.00357322  0.87073456  0.00435039     0.09200
C675        C  0.99327798  0.88311563  0.53008385    -0.02300
C676        C  0.99418718  0.91574686  0.52829990    -0.00600
C677        C  0.00565700  0.93680789  0.00058797    -0.04200
C678        C  0.01659016  0.92403691  0.97498531     0.02800
C679        C  0.00478533  0.83725066  0.00656488     0.09700
C680        C  0.98289525  0.86265116  0.55889691     0.35600
C681        C  0.02878173  0.94326739  0.94585079     0.39000
C682        C  0.03716391  0.83876967  0.01229995    -0.04500
C683        C  0.03923283  0.80776962  0.01185029     0.02600
C684        C  0.00895405  0.77502257  0.00559616    -0.04100
C685        C  0.97640037  0.77332195  0.50051937    -0.00400
C686        C  0.97432214  0.80437399  0.50095973    -0.02900
C687        C  0.06848076  0.87244348  0.01822839     0.36300
C688        C  0.94499616  0.73953654  0.49515945     0.39900
C689        C  0.07268272  0.80963764  0.01731506     0.39100
C690        C  0.94097786  0.80261274  0.49520917     0.36000
C691        C  0.02469025  0.87768080  0.95006651     0.36700
C692        C  0.98693455  0.92888007  0.55653016     0.39900
N693        N  0.09942154  0.81121066  0.02159878    -0.38100
N694        N  0.09344214  0.89936577  0.02284194    -0.39700
N695        N  0.91993034  0.71254394  0.49100939    -0.37500
N696        N  0.91432497  0.80111739  0.49060313    -0.39900
N697        N  0.97473284  0.84634617  0.58188054    -0.39600
N698        N  0.98299765  0.93874564  0.58034580    -0.37300
N699        N  0.03790077  0.95552248  0.92119767    -0.38300
N700        N  0.03236180  0.86680992  0.92883313    -0.40000
C701        C  0.02957325  0.63164707  0.84063909    -0.04900
C702        C  0.01139403  0.61777885  0.86899386     0.09200
C703        C  0.99194168  0.58095858  0.87359765    -0.02300
C704        C  0.99129034  0.55810712  0.85026804    -0.00600
C705        C  0.00993138  0.57195372  0.82203989    -0.04200
C706        C  0.02878734  0.60882510  0.81716723     0.02800
C707        C  0.01459289  0.64180619  0.89507260     0.09700
C708        C  0.97325593  0.56667662  0.90276359     0.35600
C709        C  0.04698441  0.62329405  0.78781511     0.39000
C710        C  0.99150382  0.65517612  0.89690810    -0.04500
C711        C  0.99254724  0.67504518  0.92318847     0.02600
C712        C  0.01671850  0.68157404  0.94789498    -0.04100
C713        C  0.04089832  0.66938786  0.94517876    -0.00400
C714        C  0.03983190  0.64970113  0.91885933    -0.02900
C715        C  0.96604272  0.64762663  0.87206740     0.36300
C716        C  0.06706019  0.67705481  0.96942723     0.39900
C717        C  0.96740353  0.68702371  0.92541222     0.39100
C718        C  0.06438363  0.63695139  0.91634468     0.36000
C719        C  0.04959172  0.66946248  0.83593694     0.36700
C720        C  0.97289748  0.52041296  0.85601111     0.39900
N721        N  0.94727610  0.69652660  0.92702821    -0.38100
N722        N  0.94575770  0.64163226  0.85221685    -0.39700
N723        N  0.08788476  0.68297280  0.98875222    -0.37500
N724        N  0.08386199  0.62669360  0.91412848    -0.39900
N725        N  0.95842977  0.55536684  0.92608074    -0.39600
N726        N  0.95840649  0.49035556  0.86056882    -0.37300
N727        N  0.06144685  0.63477897  0.76437156    -0.38300
N728        N  0.06558142  0.69965321  0.83225682    -0.40000
C729        C  0.99375348  0.61307252  0.66999579    -0.04900
C730        C  0.01207334  0.61732826  0.64187549     0.09200
C731        C  0.03116425  0.59977361  0.63782060    -0.02300
C732        C  0.03129595  0.57734455  0.66152672    -0.00600
C733        C  0.01240886  0.57249400  0.68949726    -0.04200
C734        C  0.99390887  0.59070383  0.69380568     0.02800
C735        C  0.01018326  0.63907958  0.61572609     0.09700
C736        C  0.05034796  0.60457358  0.60899617     0.35600
C737        C  0.97580247  0.58715527  0.72304823     0.39000
C738        C  0.03642106  0.67475765  0.61244756    -0.04500
C739        C  0.03652269  0.69417502  0.58589798     0.02600
C740        C  0.01045537  0.67779282  0.56247146    -0.04100
C741        C  0.98344440  0.64242382  0.56646291    -0.00400
C742        C  0.98324841  0.62319674  0.59308998    -0.02900
C743        C  0.06376667  0.69108213  0.63606770     0.36300
C744        C  0.95576065  0.62577873  0.54313603     0.39900
C745        C  0.06441929  0.73040530  0.58203453     0.39100
C746        C  0.95568923  0.58679194  0.59700078     0.36000
C747        C  0.97478126  0.63175987  0.67432067     0.36700
C748        C  0.04978260  0.55823451  0.65659239     0.39900
N749        N  0.08680566  0.75929735  0.57913075    -0.38100
N750        N  0.08554046  0.70397416  0.65497075    -0.39700
N751        N  0.93377230  0.61258916  0.52445322    -0.37500
N752        N  0.93369764  0.55777488  0.60021900    -0.39900
N753        N  0.06566539  0.60855028  0.58598748    -0.39600
N754        N  0.06445372  0.54292876  0.65267088    -0.37300
N755        N  0.96146733  0.58436173  0.74642856    -0.38300
N756        N  0.95970863  0.64674358  0.67774314    -0.40000
C757        C  0.97704857  0.17282663  0.51390437    -0.04900
C758        C  0.00784297  0.17156602  0.00769166     0.09200
C759        C  0.03983802  0.20316685  0.00251449    -0.02300
C760        C  0.04097655  0.23581699  0.00324150    -0.00600
C761        C  0.01005594  0.23701121  0.00883405    -0.04200
C762        C  0.97806014  0.20543955  0.51405832     0.02800
C763        C  0.00651521  0.13687039  0.00595642     0.09700
C764        C  0.07153075  0.20197031  0.99624400     0.35600
C765        C  0.94601980  0.20649042  0.51877765     0.39000
C766        C  0.99513387  0.11693700  0.97833879    -0.04500
C767        C  0.99426229  0.08441860  0.97635641     0.02600
C768        C  0.00522708  0.07139366  0.00212317    -0.04100
C769        C  0.01652598  0.09191729  0.52993856    -0.00400
C770        C  0.01709479  0.12428058  0.53171754    -0.02900
C771        C  0.98513845  0.13059414  0.95151630     0.36300
C772        C  0.02513017  0.07919689  0.55804642     0.39900
C773        C  0.98406409  0.06626517  0.94669554     0.39100
C774        C  0.02810896  0.14463185  0.56041326     0.36000
C775        C  0.94442866  0.14055066  0.52043543     0.36700
C776        C  0.07399043  0.26822024  0.99826758     0.39900
N777        N  0.97699894  0.05454107  0.92175653    -0.38100
N778        N  0.97725911  0.14158778  0.93017385    -0.39700
N779        N  0.03056367  0.07021240  0.58194873    -0.37500
N780        N  0.03684639  0.16086119  0.58327873    -0.39900
N781        N  0.09679744  0.20097007  0.99125868    -0.39600
N782        N  0.10040104  0.29403749  0.99438862    -0.37300
N783        N  0.92043116  0.20735145  0.52229185    -0.38300
N784        N  0.91844093  0.11484774  0.52590600    -0.40000
C785        C  0.03402973  0.40490215  0.67092748    -0.04900
C786        C  0.01551317  0.40020033  0.64258937     0.09200
C787        C  0.99546763  0.41681657  0.63816149    -0.02300
C788        C  0.99438031  0.43852034  0.66174192    -0.00600
C789        C  0.01282005  0.44320082  0.69022510    -0.04200
C790        C  0.03241017  0.42603440  0.69482934     0.02800
C791        C  0.01755855  0.37836542  0.61688265     0.09700
C792        C  0.97615425  0.41170493  0.60911839     0.35600
C793        C  0.05006568  0.42925930  0.72451511     0.39000
C794        C  0.99379404  0.34176810  0.61594800    -0.04500
C795        C  0.99327788  0.32183803  0.58993884     0.02600
C796        C  0.01659786  0.33852244  0.56467167    -0.04100
C797        C  0.04155512  0.37496168  0.56648433    -0.00400
C798        C  0.04200761  0.39472565  0.59249797    -0.02900
C799        C  0.96925393  0.32490315  0.64146870     0.36300
C800        C  0.06694143  0.39226164  0.54157713     0.39900
C801        C  0.96745889  0.28460252  0.58855174     0.39100
C802        C  0.06731737  0.43212747  0.59403696     0.36000
C803        C  0.05494864  0.38815809  0.67530463     0.36700
C804        C  0.97546089  0.45718884  0.65610664     0.39900
N805        N  0.94678765  0.25489670  0.58756483    -0.38100
N806        N  0.94977591  0.31159143  0.66193290    -0.39700
N807        N  0.08708154  0.40601719  0.02164640    -0.37500
N808        N  0.08751403  0.46194989  0.59532609    -0.39900
N809        N  0.96073952  0.40750036  0.58593724    -0.39600
N810        N  0.96053381  0.47223047  0.65158233    -0.37300
N811        N  0.06397557  0.43174965  0.74827752    -0.38300
N812        N  0.07170876  0.37485091  0.67870615    -0.40000
C813        C  0.03582648  0.36666361  0.90292059    -0.04900
C814        C  0.00758800  0.37275976  0.89796699     0.09200
C815        C  0.97866483  0.35771863  0.91853971    -0.02300
C816        C  0.97859707  0.33780242  0.94462226    -0.00600
C817        C  0.00754044  0.33299226  0.95037623    -0.04200
C818        C  0.03587231  0.34690085  0.92914120     0.02800
C819        C  0.00907733  0.39659148  0.87205103     0.09700
C820        C  0.94942241  0.36360414  0.91330594     0.35600
C821        C  0.06588681  0.34246760  0.93511048     0.39000
C822        C  0.99015957  0.38246931  0.84399476    -0.04500
C823        C  0.99049336  0.40507098  0.82014553     0.02600
C824        C  0.01007169  0.44200342  0.82415513    -0.04100
C825        C  0.02940722  0.45608927  0.85213290    -0.00400
C826        C  0.02885684  0.43343429  0.87598908    -0.02900
C827        C  0.97065937  0.34463098  0.83963593     0.36300
C828        C  0.04891202  0.49389853  0.85690591     0.39900
C829        C  0.97147259  0.39028652  0.79113558     0.39100
C830        C  0.04841934  0.44798099  0.90480830     0.36000
C831        C  0.06521710  0.38156461  0.88140470     0.36700
C832        C  0.94876647  0.32230948  0.96568834     0.39900
N833        N  0.95631776  0.37853084  0.76798094    -0.38100
N834        N  0.95518226  0.31443024  0.83621570    -0.39700
N835        N  0.06442555  0.52405022  0.86066646    -0.37500
N836        N  0.06409780  0.45950800  0.92777489    -0.39900
N837        N  0.92610743  0.36831001  0.90907940    -0.39600
N838        N  0.92499978  0.30984181  0.98251058    -0.37300
N839        N  0.08995403  0.33910581  0.93982697    -0.38300
N840        N  0.08864463  0.39357162  0.86420863    -0.40000
C841        C  0.20525735  0.04071296  0.49625000    -0.04900
C842        C  0.17512995  0.01484033  0.98039039     0.09200
C843        C  0.17721212  0.98921567  0.96236021    -0.02300
C844        C  0.20915364  0.98913953  0.96049431    -0.00600
C845        C  0.23933312  0.01476928  0.97670475    -0.04200
C846        C  0.23720952  0.04064255  0.49452754     0.02800
C847        C  0.14033800  0.01250011  0.98503790     0.09700
C848        C  0.14603421  0.96220040  0.94656240     0.35600
C849        C  0.26793274  0.06743958  0.51098720     0.39000
C850        C  0.12567652  0.02387731  0.96157284    -0.04500
C851        C  0.09214308  0.02007717  0.96570879     0.02600
C852        C  0.07304372  0.00574713  0.99392143    -0.04100
C853        C  0.08809180  0.99384331  0.51724242    -0.00400
C854        C  0.12141104  0.99728490  0.51268033    -0.02900
C855        C  0.14503242  0.03905657  0.93284759     0.36300
C856        C  0.07087483  0.97857401  0.54659338     0.39900
C857        C  0.07612020  0.02772536  0.93935208     0.39100
C858        C  0.13659161  0.98512970  0.53663035     0.36000
C859        C  0.20309233  0.06700412  0.51487667     0.36700
C860        C  0.21029041  0.96142039  0.94327368     0.39900
N861        N  0.06341224  0.03203308  0.91718456    -0.38100
N862        N  0.16047973  0.05112838  0.90993649    -0.39700
N863        N  0.06033728  0.96669328  0.57111846    -0.37500
N864        N  0.14883498  0.97559052  0.55564890    -0.39900
N865        N  0.12108703  0.94076222  0.93399231    -0.39600
N866        N  0.21110736  0.93921564  0.92962100    -0.37300
N867        N  0.29239114  0.08871308  0.52424231    -0.38300
N868        N  0.20130732  0.08785671  0.52985795    -0.40000
C869        C  0.34697280  0.97945297  0.87805241    -0.04900
C870        C  0.37438024  0.01181941  0.86638851     0.09200
C871        C  0.37996855  0.04376032  0.87918497    -0.02300
C872        C  0.35911968  0.04328010  0.90425947    -0.00600
C873        C  0.33285943  0.01090996  0.91680903    -0.04200
C874        C  0.32635016  0.97901661  0.90333706     0.02800
C875        C  0.39832643  0.01219236  0.84154050     0.09700
C876        C  0.40804300  0.07706362  0.86731388     0.35600
C877        C  0.29918509  0.94578500  0.91619392     0.39000
C878        C  0.39518528  0.02128539  0.81037603    -0.04500
C879        C  0.41776858  0.02147417  0.78702714     0.02600
C880        C  0.44338368  0.01226930  0.79470084    -0.04100
C881        C  0.44609530  0.00256442  0.82575024    -0.00400
C882        C  0.42408364  0.00317131  0.84922101    -0.02900
C883        C  0.36852087  0.03022458  0.80237855     0.36300
C884        C  0.47139431  0.99171685  0.83354931     0.39900
C885        C  0.41360264  0.02972833  0.75489237     0.39100
C886        C  0.42818878  0.99493646  0.88141805     0.36000
C887        C  0.34072498  0.94660532  0.86457787     0.36700
C888        C  0.36540860  0.07607857  0.91792509     0.39900
N889        N  0.40968827  0.03603654  0.72931377    -0.38100
N890        N  0.34731361  0.03748518  0.79612914    -0.39700
N891        N  0.49125095  0.98266912  0.83984653    -0.37500
N892        N  0.43147391  0.98845071  0.90712489    -0.39900
N893        N  0.43042466  0.10362147  0.85779496    -0.39600
N894        N  0.37032283  0.10215926  0.92891372    -0.37300
N895        N  0.27751583  0.91928970  0.92649313    -0.38300
N896        N  0.33592893  0.92043515  0.85389101    -0.40000
C897        C  0.41932261  0.04557668  0.63123937    -0.04900
C898        C  0.39929597  0.01572311  0.61251824     0.09200
C899        C  0.39981010  0.98451490  0.61881372    -0.02300
C900        C  0.42054172  0.98308622  0.64353563    -0.00600
C901        C  0.44277734  0.01375121  0.66140434    -0.04200
C902        C  0.44141506  0.04498395  0.65513571     0.02800
C903        C  0.37886604  0.01750874  0.58503924     0.09700
C904        C  0.37929576  0.95385182  0.59926099     0.35600
C905        C  0.46193170  0.07668904  0.67342113     0.39000
C906        C  0.39668072  0.03495877  0.55744870    -0.04500
C907        C  0.37768669  0.03526114  0.53084387     0.02600
C908        C  0.34034018  0.01668209  0.53107696    -0.04100
C909        C  0.32257650  0.99944909  0.55902998    -0.00400
C910        C  0.34185720  0.00042554  0.58599890    -0.02900
C911        C  0.43472978  0.05189155  0.55620141     0.36300
C912        C  0.28448023  0.97912518  0.55985885     0.39900
C913        C  0.39702916  0.05526512  0.50345672     0.39100
C914        C  0.32364292  0.98322035  0.61469651     0.36000
C915        C  0.41702751  0.07702082  0.62580647     0.36700
C916        C  0.41840186  0.94961244  0.65005754     0.39900
N917        N  0.41262023  0.07113749  0.98165917    -0.38100
N918        N  0.46504283  0.06528941  0.55521648    -0.39700
N919        N  0.25409484  0.96278549  0.56058171    -0.37500
N920        N  0.30920489  0.96946345  0.63760998    -0.39900
N921        N  0.36290650  0.92950069  0.58361802    -0.39600
N922        N  0.41601910  0.92259928  0.65522444    -0.37300
N923        N  0.47812859  0.10209792  0.68788400    -0.38300
N924        N  0.41505535  0.10200098  0.62148430    -0.40000
C925        C  0.83869262  0.03283569  0.97485106    -0.04900
C926        C  0.83834082  0.00234715  0.98606469     0.09200
C927        C  0.80606496  0.97245043  0.49430304    -0.02300
C928        C  0.77440626  0.97318179  0.49166459    -0.00600
C929        C  0.77490291  0.00415597  0.98167281    -0.04200
C930        C  0.80719646  0.03395543  0.97313980     0.04900
C931        C  0.87216749  0.00202821  0.98963637     0.09700
C932        C  0.80554926  0.94096314  0.50554303     0.35600
C933        C  0.80821951  0.06613493  0.96340787     0.39000
C934        C  0.89202522  0.01433206  0.51734264    -0.04500
C935        C  0.92433973  0.01494862  0.52068511     0.02600
C936        C  0.93768645  0.00342062  0.99595787    -0.04100
C937        C  0.91723453  0.99128680  0.96798917    -0.00400
C938        C  0.88468284  0.99025251  0.96512454    -0.02900
C939        C  0.87879024  0.02616610  0.54274086     0.36300
C940        C  0.93051291  0.98272964  0.94062063     0.39900
C941        C  0.94215250  0.02636454  0.55049668     0.39100
C942        C  0.86411460  0.97767912  0.93651074     0.36000
C943        C  0.87154607  0.06295531  0.96482290     0.36700
C944        C  0.74116795  0.94169626  0.49839575     0.39900
N945        N  0.95335861  0.03486187  0.57554243    -0.38100
N946        N  0.86829134  0.03559346  0.56300109    -0.39700
N947        N  0.94026858  0.97742025  0.91735008    -0.37500
N948        N  0.84759274  0.96766538  0.91376099    -0.39900
N949        N  0.80524513  0.91590574  0.51455892    -0.39600
N950        N  0.71464882  0.91638339  0.50339084    -0.37300
N951        N  0.80930336  0.09201192  0.95585954    -0.38300
N952        N  0.89774034  0.08682569  0.95653719    -0.40000
C953        C  0.61901019  0.98039449  0.89618361    -0.04900
C954        C  0.63566731  0.00462292  0.87155285     0.09200
C955        C  0.67256140  0.02647140  0.87181190    -0.02300
C956        C  0.69264050  0.02527531  0.89734316    -0.00600
C957        C  0.67577667  0.00235032  0.92295731    -0.04200
C958        C  0.63890186  0.97915452  0.92170549     0.02800
C959        C  0.61413576  0.00717648  0.84539024     0.09700
C960        C  0.68966425  0.05069527  0.84597108     0.35600
C961        C  0.62126657  0.95368071  0.94666272     0.39000
C962        C  0.60029359  0.02984898  0.84794736    -0.04500
C963        C  0.57943291  0.03179184  0.82356612     0.02600
C964        C  0.57162407  0.01042986  0.79665099    -0.04100
C965        C  0.58562984  0.98774974  0.79421194    -0.00400
C966        C  0.60697537  0.98636763  0.81839862    -0.02900
C967        C  0.60714886  0.05079954  0.87598262     0.36300
C968        C  0.57887694  0.96639114  0.76646667     0.39900
C969        C  0.56496245  0.05484745  0.82685656     0.39100
C970        C  0.62169112  0.96350022  0.81562683     0.36000
C971        C  0.58121385  0.95698700  0.89539075     0.36700
C972        C  0.73038040  0.04866102  0.89759536     0.39900
N973        N  0.55334865  0.07316284  0.82951410    -0.38100
N974        N  0.61252465  0.06740641  0.89840602    -0.39700
N975        N  0.57344056  0.94930347  0.74435884    -0.37500
N976        N  0.63359813  0.94539156  0.81351546    -0.39900
N977        N  0.70310453  0.06994068  0.82525690    -0.39600
N978        N  0.76051563  0.06737697  0.89732308    -0.37300
N979        N  0.60729651  0.93347304  0.96663586    -0.38300
N980        N  0.55107159  0.93829096  0.89474714    -0.40000
C981        C  0.64711747  0.03530432  0.56361217    -0.04900
C982        C  0.64051969  0.01208824  0.58896073     0.09200
C983        C  0.65476705  0.98964958  0.58887724    -0.02300
C984        C  0.67452889  0.98950268  0.56297605    -0.00600
C985        C  0.68034492  0.01206106  0.53701220    -0.04200
C986        C  0.66707179  0.03551415  0.53787725     0.02800
C987        C  0.61731878  0.01059448  0.61511645     0.09700
C988        C  0.64827038  0.96608091  0.61519093     0.35600
C989        C  0.67391142  0.06010733  0.51229581     0.39000
C990        C  0.58056940  0.98874376  0.61251685    -0.04500
C991        C  0.55828920  0.98950580  0.63567764     0.02600
C992        C  0.57261539  0.01153207  0.66216476    -0.04100
C993        C  0.60959542  0.03314559  0.66485266    -0.00400
C994        C  0.63177540  0.03278284  0.64129675    -0.02900
C995        C  0.56567303  0.96590245  0.58556725     0.36300
C996        C  0.62501764  0.05542484  0.69203781     0.39900
C997        C  0.52054279  0.96903324  0.63113865     0.39100
C998        C  0.66956266  0.05556854  0.64367236     0.36000
C999        C  0.63264356  0.05855369  0.56382500     0.36700
C1000       C  0.68711208  0.96473918  0.56254473     0.39900
N1001       N  0.49048667  0.95281530  0.62711732    -0.38100
N1002       N  0.55381051  0.94765211  0.56409490    -0.39700
N1003       N  0.63737830  0.07326461  0.71368714    -0.37500
N1004       N  0.69973026  0.07374214  0.64537762    -0.39900
N1005       N  0.64308940  0.94729887  0.63621037    -0.39600
N1006       N  0.69696441  0.94480526  0.56253831    -0.37300
N1007       N  0.67919654  0.07962228  0.49186548    -0.38300
N1008       N  0.62096097  0.07696620  0.56408189    -0.40000
C1009       C  0.88304356  0.89593915  0.52634741    -0.04900
C1010       C  0.87369988  0.87157453  0.00191522     0.09200
C1011       C  0.89629572  0.87961765  0.97623716    -0.02300
C1012       C  0.92781720  0.91237322  0.97455618    -0.00600
C1013       C  0.93847738  0.93667350  0.99978766    -0.04200
C1014       C  0.91577689  0.92741956  0.52606840     0.02800
C1015       C  0.84015700  0.83704313  0.00377827     0.09700
C1016       C  0.88691108  0.85402162  0.95135872     0.35600
C1017       C  0.92638428  0.94815821  0.55433364     0.39000
C1018       C  0.81085293  0.83114674  0.98558022    -0.04500
C1019       C  0.77868065  0.79923877  0.98856668     0.02600
C1020       C  0.77549688  0.77301152  0.01011382    -0.04100
C1021       C  0.80523107  0.77899543  0.52805386    -0.00400
C1022       C  0.83737795  0.81082484  0.52479368    -0.02900
C1023       C  0.81374360  0.85835274  0.96420043     0.36300
C1024       C  0.80328209  0.75217353  0.54937585     0.39900
C1025       C  0.74869162  0.79414590  0.97005546     0.39100
C1026       C  0.86776288  0.81680960  0.54319432     0.36000
C1027       C  0.85879101  0.88829135  0.55207800     0.36700
C1028       C  0.94760289  0.92076684  0.94581071     0.39900
N1029       N  0.72489561  0.79014894  0.95513217    -0.38100
N1030       N  0.81623927  0.88011523  0.94715720    -0.39700
N1031       N  0.80181222  0.73089960  0.56648210    -0.37500
N1032       N  0.89201686  0.82176369  0.55790518    -0.39900
N1033       N  0.87951224  0.83366438  0.93151884    -0.39600
N1034       N  0.96091272  0.92562244  0.92158785    -0.37300
N1035       N  0.93327547  0.96209239  0.57836296    -0.38300
N1036       N  0.83932653  0.88215114  0.57245051    -0.40000
C1037       C  0.59870242  0.62912146  0.85748241    -0.04900
C1038       C  0.60590778  0.61388403  0.88359498     0.09200
C1039       C  0.59178710  0.57715009  0.88505602    -0.02300
C1040       C  0.57035942  0.55558911  0.86054319    -0.00600
C1041       C  0.56360942  0.57079186  0.83393738    -0.04200
C1042       C  0.57793539  0.60772777  0.83252871     0.02800
C1043       C  0.62829238  0.63634715  0.90990589     0.09700
C1044       C  0.59929854  0.56159802  0.91199774     0.35600
C1045       C  0.57232282  0.62395110  0.80502191     0.39000
C1046       C  0.61253426  0.64179384  0.93620916    -0.04500
C1047       C  0.63326985  0.66055907  0.96220609     0.02600
C1048       C  0.66999289  0.67368009  0.96218789    -0.04100
C1049       C  0.68580572  0.66890625  0.93535749    -0.00400
C1050       C  0.66496845  0.65039236  0.90928610    -0.02900
C1051       C  0.57480637  0.62757182  0.93659172     0.36300
C1052       C  0.72324222  0.68152593  0.93499220     0.39900
C1053       C  0.61671980  0.66682481  0.98870337     0.39100
C1054       C  0.68107047  0.64499754  0.88198713     0.36000
C1055       C  0.61264704  0.66684861  0.85642184     0.36700
C1056       C  0.55417068  0.51763345  0.86343675     0.39900
N1057       N  0.60352247  0.67179347  0.00984172    -0.38100
N1058       N  0.54469991  0.61613447  0.93683981    -0.39700
N1059       N  0.75310228  0.69156108  0.93470288    -0.37500
N1060       N  0.69381512  0.64065394  0.86016133    -0.39900
N1061       N  0.60543535  0.54935527  0.93351316    -0.39600
N1062       N  0.54114003  0.48737172  0.86584725    -0.37300
N1063       N  0.56788448  0.63684696  0.78302714    -0.38300
N1064       N  0.62366557  0.69693552  0.85565945    -0.40000
C1065       C  0.65194651  0.67517580  0.62328178    -0.04900
C1066       C  0.64477577  0.64052877  0.62917479     0.09200
C1067       C  0.66020633  0.62591077  0.61017535    -0.02300
C1068       C  0.68008902  0.64458726  0.58377039    -0.00600
C1069       C  0.68474108  0.67801892  0.57633507    -0.04200
C1070       C  0.67208196  0.69399899  0.59695874     0.02800
C1071       C  0.61913281  0.61841383  0.65402007     0.09700
C1072       C  0.65495493  0.59131952  0.61752388     0.35600
C1073       C  0.67852938  0.72917735  0.59035505     0.39000
C1074       C  0.58322430  0.59690390  0.64625062    -0.04500
C1075       C  0.55906858  0.57460934  0.66906775     0.02600
C1076       C  0.57071184  0.57366723  0.69979542    -0.04100
C1077       C  0.60658958  0.59543748  0.70764102    -0.00400
C1078       C  0.63071472  0.61780815  0.68480169    -0.02900
C1079       C  0.57131236  0.59736865  0.61454510     0.36300
C1080       C  0.61856675  0.59518573  0.73936005     0.39900
C1081       C  0.52246751  0.55158391  0.66060915     0.39100
C1082       C  0.66753168  0.64007232  0.69279423     0.36000
C1083       C  0.63779355  0.69099929  0.64386628     0.36700
C1084       C  0.69586709  0.62949214  0.56419943     0.39900
N1085       N  0.49329605  0.53309146  0.65388981    -0.38100
N1086       N  0.56193547  0.59779192  0.58921450    -0.39700
N1087       N  0.62806583  0.59497407  0.76468659    -0.37500
N1088       N  0.69694372  0.65790723  0.69906204    -0.39900
N1089       N  0.65083764  0.56377665  0.62355114    -0.39600
N1090       N  0.70869967  0.61763379  0.54867049    -0.37300
N1091       N  0.68390641  0.75733128  0.58507281    -0.38300
N1092       N  0.62658049  0.70365661  0.66037214    -0.40000
C1093       C  0.11760403  0.12938530  0.98230419    -0.04900
C1094       C  0.13845861  0.13542953  0.00919223     0.09200
C1095       C  0.12657483  0.10998450  0.53320231    -0.02300
C1096       C  0.09391552  0.07847749  0.53036894    -0.00600
C1097       C  0.07266064  0.07156776  0.00305789    -0.04200
C1098       C  0.08518126  0.09771932  0.97899432     0.02800
C1099       C  0.17314878  0.16881162  0.01199692     0.09700
C1100       C  0.14800718  0.11655919  0.56113274     0.35600
C1101       C  0.06647511  0.09266826  0.94979769     0.39000
C1102       C  0.17631839  0.19683460  0.53033212    -0.04500
C1103       C  0.20836479  0.22916928  0.53118125     0.02600
C1104       C  0.23773960  0.23346054  0.01411889    -0.04100
C1105       C  0.23477248  0.20479963  0.99672231    -0.00400
C1106       C  0.20247013  0.17285352  0.99528471    -0.02900
C1107       C  0.14629694  0.19249517  0.54787607     0.36300
C1108       C  0.26522603  0.20767923  0.98101486     0.39900
C1109       C  0.21051544  0.25837012  0.54862849     0.39100
C1110       C  0.19918706  0.14419515  0.97618629     0.36000
C1111       C  0.12987215  0.15606883  0.95777231     0.36700
C1112       C  0.08179635  0.05458918  0.55685737     0.39900
N1113       N  0.21217633  0.28165606  0.56252175    -0.38100
N1114       N  0.12234243  0.18886239  0.56196770    -0.39700
N1115       N  0.28955705  0.20992109  0.96862325    -0.37500
N1116       N  0.19649422  0.12146842  0.96072429    -0.39900
N1117       N  0.16506156  0.12192251  0.58343383    -0.39600
N1118       N  0.07294763  0.03738993  0.57930678    -0.37300
N1119       N  0.05445823  0.09125040  0.92527269    -0.38300
N1120       N  0.13972186  0.17735918  0.93828529    -0.40000
C1121       C  0.39296604  0.38287193  0.84726733    -0.04900
C1122       C  0.39407060  0.39573630  0.87766241     0.09200
C1123       C  0.41504262  0.43210949  0.88370418    -0.02300
C1124       C  0.43571535  0.45541391  0.85969736    -0.00600
C1125       C  0.43554379  0.44239524  0.82955119    -0.04200
C1126       C  0.41356901  0.40619553  0.82318976     0.02800
C1127       C  0.37331420  0.37112407  0.90361159     0.09700
C1128       C  0.41552605  0.44540449  0.91480152     0.35600
C1129       C  0.41151347  0.39316202  0.79167299     0.39000
C1130       C  0.38945711  0.35818782  0.92423294    -0.04500
C1131       C  0.37115693  0.33805680  0.95069070     0.02600
C1132       C  0.33634593  0.33016171  0.95628499    -0.04100
C1133       C  0.31984347  0.34222228  0.93509417    -0.00400
C1134       C  0.33835996  0.36276250  0.90886944    -0.02900
C1135       C  0.42525557  0.36642039  0.91858670     0.36300
C1136       C  0.28469970  0.33559104  0.94144172     0.39900
C1137       C  0.38838768  0.32603742  0.97252569     0.39100
C1138       C  0.32204906  0.37659279  0.88793595     0.36000
C1139       C  0.37079751  0.34561280  0.84092898     0.36700
C1140       C  0.45789348  0.49265616  0.86624576     0.39900
N1141       N  0.40213466  0.31660611  0.49008752    -0.38100
N1142       N  0.45381462  0.37300554  0.91405034    -0.39700
N1143       N  0.25674625  0.33043913  0.94667405    -0.37500
N1144       N  0.30918710  0.38779805  0.87123662    -0.39900
N1145       N  0.41579820  0.45586032  0.93965211    -0.39600
N1146       N  0.47553574  0.52236899  0.87144282    -0.37300
N1147       N  0.40966606  0.38283298  0.76647233    -0.38300
N1148       N  0.35306873  0.31586687  0.83592879    -0.40000
C1149       C  0.36971413  0.39299348  0.59619661    -0.04900
C1150       C  0.37053998  0.37544820  0.62363106     0.09200
C1151       C  0.35087402  0.33840730  0.62525967    -0.02300
C1152       C  0.33221588  0.31873525  0.59868723    -0.00600
C1153       C  0.33275143  0.33623732  0.57042609    -0.04200
C1154       C  0.35054861  0.37361873  0.56986562     0.02800
C1155       C  0.39352465  0.39644099  0.65025091     0.09700
C1156       C  0.35040869  0.32062980  0.65420146     0.35600
C1157       C  0.34893292  0.39253972  0.54242093     0.39000
C1158       C  0.37980337  0.40727197  0.67460755    -0.04500
C1159       C  0.40229675  0.42997252  0.69809568     0.02600
C1160       C  0.43885819  0.44217125  0.69721324    -0.04100
C1161       C  0.45234950  0.43060756  0.67295487    -0.00400
C1162       C  0.42971690  0.40787444  0.64958528    -0.02900
C1163       C  0.34255076  0.39551904  0.67504144     0.36300
C1164       C  0.48972389  0.44312789  0.67110325     0.39900
C1165       C  0.38747624  0.44009352  0.72343397     0.39100
C1166       C  0.44376500  0.39697333  0.62418019     0.36000
C1167       C  0.38919835  0.43121387  0.59501874     0.36700
C1168       C  0.31385620  0.28059123  0.60031470     0.39900
N1169       N  0.37560093  0.44816155  0.74359886    -0.38100
N1170       N  0.31282817  0.38610869  0.67527727    -0.39700
N1171       N  0.51950666  0.45302805  0.66961741    -0.37500
N1172       N  0.45489166  0.38836973  0.60379992    -0.39900
N1173       N  0.34988864  0.30650793  0.67737539    -0.39600
N1174       N  0.29917324  0.25015644  0.60172219    -0.37300
N1175       N  0.34778712  0.40771431  0.52056394    -0.38300
N1176       N  0.40487640  0.46166998  0.59420065    -0.40000
loop_ 
_geom_bond_atom_site_label_1 
_geom_bond_atom_site_label_2 
_geom_bond_distance 
_geom_bond_site_symmetry_2 
_ccdc_geom_bond_type 
C1            N6   1.361       .  A
C1          N590   1.362       .  A
C1          C516   1.490       .  S
N2            C3   1.360       .  A
N2          C589   1.362       .  A
C3            N4   1.355       .  A
C3          C565   1.493       .  S
N4          C593   1.352   1_554  A
C5            N6   1.357       .  A
C5          N592   1.352       .  A
C5          C544   1.480       .  S
C7            N8   1.362       .  A
C7          N600   1.359   1_554  A
C7         C1020   1.492       .  S
N8            C9   1.359       .  A
C9           N10   1.356       .  A
C9          C481   1.481       .  S
N10         C599   1.356   1_554  A
C11          N12   1.357       .  A
C11         N598   1.356       .  A
C11         C460   1.488       .  S
N12         C595   1.359       .  A
O13         Ni21   1.916       .  S
O13          C23   1.281       .  A
O14         Ni21   1.915       .  S
O14          C24   1.281       .  A
O15         Ni21   1.920       .  S
O15          C25   1.281       .  A
O16         Ni21   1.921       .  S
O16          C26   1.282       .  A
O17         Ni22   1.918       .  S
O17          C26   1.281       .  A
O18         Ni22   1.914       .  S
O18          C25   1.280       .  A
O19         Ni22   1.913       .  S
O19          C24   1.281       .  A
O20         Ni22   1.914       .  S
O20          C23   1.281       .  A
Ni21        Ni22   2.390       .  S
C23         C453   1.486       .  S
C24         C572   1.488       .  S
C25         C537   1.478       .  S
C26         C488   1.483       .  S
C27          N32   1.365       .  A
C27         N616   1.364       .  A
C27         C341   1.489       .  S
N28          C29   1.361       .  A
N28         C615   1.364   1_554  A
C29         N618   1.353   1_554  A
C29         C397   1.494       .  S
N30          C31   1.354       .  A
N30         C617   1.353       .  A
C31          N32   1.363       .  A
C31         C369   1.492       .  S
C33          N38   1.361       .  A
C33         N622   1.362       .  A
C33         C257   1.489       .  S
N34          C35   1.360       .  A
N34         C621   1.362   1_554  A
C35         N624   1.355   1_554  A
C35         C320   1.495       .  S
N36          C37   1.352       .  A
N36         C623   1.355       .  A
C37          N38   1.357       .  A
C37         C285   1.474       .  S
O39         Ni47   1.922       .  S
O39          C49   1.282       .  A
O40         Ni47   1.919       .  S
O40          C50   1.282       .  A
O41         Ni47   1.922       .  S
O41          C51   1.281       .  A
O42         Ni47   1.922       .  S
O42          C52   1.282       .  A
O43         Ni48   1.920       .  S
O43          C52   1.282   1_565  A
O44         Ni48   1.915       .  S
O44          C51   1.279   1_565  A
O45         Ni48   1.918       .  S
O45          C50   1.282   1_565  A
O46         Ni48   1.917       .  S
O46          C49   1.282   1_565  A
Ni47        Ni48   2.384   1_545  S
C49         C376   1.491       .  S
C50         C313   1.509       .  S
C51         C292   1.479       .  S
C52         C404   1.493       .  S
C53          N54   1.360       .  A
C53         N646   1.362       .  A
C53         C173   1.481       .  S
N54          C55   1.358       .  A
C55          N56   1.354       .  A
C55         C229   1.480       .  S
N56         C645   1.356       .  A
C57          N58   1.361       .  A
C57         N644   1.356       .  A
C57         C208   1.489       .  S
N58         C641   1.362       .  A
C59          N60   1.359       .  A
C59         N652   1.363   1_554  A
C59         C684   1.482       .  S
N60          C61   1.357       .  A
C61          N62   1.355       .  A
C61         C152   1.481       .  S
N62         C651   1.356   1_554  A
C63          N64   1.362       .  A
C63         N650   1.356       .  A
C63         C124   1.493       .  S
N64         C647   1.363       .  A
O65         Ni73   1.920       .  S
O65          C75   1.282   1_655  A
O66         Ni73   1.919       .  S
O66          C76   1.282   1_655  A
O67         Ni73   1.915       .  S
O67          C77   1.281   1_655  A
O68         Ni73   1.917       .  S
O68          C78   1.281   1_655  A
O69         Ni74   1.915       .  S
O69          C78   1.281       .  A
O70         Ni74   1.914       .  S
O70          C77   1.280       .  A
O71         Ni74   1.917       .  S
O71          C76   1.281       .  A
O72         Ni74   1.917       .  S
O72          C75   1.281       .  A
Ni73        Ni74   2.390   1_655  S
C75         C201   1.485       .  S
C76         C117   1.484       .  S
C77         C145   1.480       .  S
C78         C236   1.484       .  S
C79         C509   1.524       .  S
C79          C80   1.437       .  A
C79          C84   1.438       .  A
C80         C180   1.522       .  S
C80          C81   1.436   1_455  A
C81         C348   1.529       .  S
C81          C82   1.440   1_545  A
C82         C425   1.518       .  S
C82          C83   1.439   1_655  A
C83          C89   1.527       .  S
C83          C84   1.434   1_565  A
C84         C264   1.522       .  S
C85          C86   1.404       .  A
C85          C90   1.414       .  A
C85         C103   1.454       .  S
C86          C91   1.502       .  S
C86         C675   1.405   1_455  A
C87          C88   1.416       .  A
C87         C674   1.405   1_655  A
C87          C92   1.451       .  S
C88         C677   1.425   1_655  A
C88         C104   1.446       .  S
C89          C90   1.426       .  A
C89         C676   1.425   1_455  A
C90          C93   1.444       .  S
C91          C94   1.413       .  A
C91         C686   1.412   1_455  A
C92         N109   1.157       .  T
C93         N111   1.157       .  T
C94          C95   1.411       .  A
C94          C99   1.450       .  S
C95          C96   1.411       .  A
C95         C101   1.450       .  S
C96         C647   1.482       .  S
C96         C685   1.412   1_455  A
C97          C98   1.414       .  A
C97         C684   1.412   1_655  A
C97         C100   1.450   1_554  S
C98         C679   1.412   1_655  A
C98         C102   1.450   1_554  S
C99         N106   1.157       .  T
C100        N107   1.157       .  T
C101        N105   1.157       .  T
C102        N108   1.157       .  T
C103        N112   1.157       .  T
C104        N110   1.157       .  T
C113        C114   1.410       .  A
C113        C118   1.412       .  A
C113        C131   1.450       .  S
C114        C119   1.498       .  S
C114        C115   1.412   1_455  A
C115        C116   1.411       .  A
C115        C120   1.451       .  S
C116        C117   1.413   1_655  A
C116        C132   1.451       .  S
C117        C118   1.415       .  A
C118        C121   1.451       .  S
C119        C122   1.410   1_455  A
C119        C126   1.409       .  A
C120        N137   1.157       .  T
C121        N139   1.157       .  T
C122        C123   1.414       .  A
C122        C127   1.450       .  S
C123        C124   1.416   1_655  A
C123        C129   1.450       .  S
C124        C125   1.418       .  A
C125        C126   1.410       .  A
C125        C128   1.451       .  S
C126        C130   1.452       .  S
C127        N134   1.157       .  T
C128        N135   1.157       .  T
C129        N133   1.157       .  T
C130        N136   1.157       .  T
C131        N140   1.157       .  T
C132        N138   1.157       .  T
C141        C142   1.410   1_655  A
C141        C146   1.410       .  A
C141        C159   1.450       .  S
C142        C147   1.492       .  S
C142        C143   1.411       .  A
C143        C144   1.408       .  A
C143        C148   1.451       .  S
C144        C145   1.413       .  A
C144        C160   1.452       .  S
C145        C146   1.414   1_455  A
C146        C149   1.451       .  S
C147        C150   1.410       .  A
C147        C154   1.409   1_455  A
C148        N165   1.157       .  T
C149        N167   1.157       .  T
C150        C151   1.411       .  A
C150        C155   1.450       .  S
C151        C152   1.413       .  A
C151        C157   1.450       .  S
C152        C153   1.413   1_455  A
C153        C154   1.408       .  A
C153        C156   1.452       .  S
C154        C158   1.451       .  S
C155        N162   1.157       .  T
C156        N163   1.157       .  T
C157        N161   1.157       .  T
C158        N164   1.157       .  T
C159        N168   1.157       .  T
C160        N166   1.157       .  T
C169        C174   1.412       .  A
C169        C758   1.412   1_655  A
C169        C187   1.450       .  S
C170        C175   1.499       .  S
C170        C171   1.412       .  A
C170        C757   1.412   1_455  A
C171        C172   1.411       .  A
C171        C176   1.450       .  S
C172        C173   1.411       .  A
C172        C188   1.450       .  S
C173        C762   1.411   1_455  A
C174        C761   1.411   1_655  A
C174        C177   1.450       .  S
C175        C178   1.405   1_455  A
C175        C770   1.404       .  A
C176        N193   1.157       .  T
C177        N195   1.157       .  T
C178        C179   1.414       .  A
C178        C183   1.453       .  S
C179        C180   1.424   1_655  A
C179        C185   1.445       .  S
C180        C769   1.424       .  A
C181        C182   1.413       .  A
C181        C768   1.424       .  A
C181        C184   1.445       .  S
C182        C763   1.404       .  A
C182        C186   1.452       .  S
C183        N190   1.157       .  T
C184        N191   1.157       .  T
C185        N189   1.157       .  T
C186        N192   1.157       .  T
C187        N196   1.157       .  T
C188        N194   1.157       .  T
C197        C198   1.410       .  A
C197        C202   1.412       .  A
C197        C215   1.450       .  S
C198        C203   1.497       .  S
C198        C199   1.411   1_455  A
C199        C200   1.410       .  A
C199        C204   1.451       .  S
C200        C201   1.414   1_655  A
C200        C216   1.451       .  S
C201        C202   1.415       .  A
C202        C205   1.451       .  S
C203        C206   1.411   1_455  A
C203        C210   1.409       .  A
C204        N221   1.157       .  T
C205        N223   1.157       .  T
C206        C207   1.413       .  A
C206        C211   1.450       .  S
C207        C208   1.415   1_655  A
C207        C213   1.450       .  S
C208        C209   1.417       .  A
C209        C210   1.410       .  A
C209        C212   1.452       .  S
C210        C214   1.451       .  S
C211        N218   1.157       .  T
C212        N807   1.157       .  T
C213        N217   1.157       .  T
C214        N220   1.157       .  T
C215        N224   1.157       .  T
C216        N222   1.157       .  T
N219        C800   1.157       .  T
C225        C226   1.412       .  A
C225        C230   1.411       .  A
C225        C243   1.450       .  S
C226        C231   1.496       .  S
C226        C227   1.411   1_455  A
C227        C228   1.409       .  A
C227        C232   1.451       .  S
C228        C229   1.412   1_655  A
C228        C244   1.451       .  S
C229        C230   1.412       .  A
C230        C233   1.450       .  S
C231        C234   1.410   1_455  A
C231        C238   1.411       .  A
C232        N249   1.157       .  T
C233        N251   1.157       .  T
C234        C235   1.411       .  A
C234        C239   1.450       .  S
C235        C236   1.415   1_655  A
C235        C241   1.451       .  S
C236        C237   1.414       .  A
C237        C238   1.410       .  A
C237        C240   1.452       .  S
C238        C242   1.451       .  S
C239        N246   1.157       .  T
C240        N247   1.157       .  T
C241        N245   1.157       .  T
C242        N248   1.157       .  T
C243        N252   1.157       .  T
C244        N250   1.157       .  T
C253        C258   1.411       .  A
C253        C842   1.411       .  A
C253        C271   1.451   1_556  S
C254        C259   1.498       .  S
C254        C255   1.411   1_545  A
C254        C841   1.411       .  A
C255        C256   1.411       .  A
C255        C260   1.451       .  S
C256        C257   1.416   1_565  A
C256        C272   1.451       .  S
C257        C846   1.416       .  A
C258        C845   1.416       .  A
C258        C261   1.451   1_556  S
C259        C262   1.405       .  A
C259        C854   1.405   1_545  A
C260        N277   1.157       .  T
C261        N279   1.157       .  T
C262        C263   1.412       .  A
C262        C267   1.451       .  S
C263        C264   1.423       .  A
C263        C269   1.447       .  S
C264        C853   1.425   1_545  A
C265        C266   1.412       .  A
C265        C852   1.425   1_564  A
C265        C268   1.443       .  S
C266        C847   1.405   1_564  A
C266        C270   1.454       .  S
C267        N274   1.157       .  T
C268        N275   1.157       .  T
C269        N273   1.157       .  T
C270        N276   1.157       .  T
C271        N280   1.157       .  T
C272        N278   1.157       .  T
C281        C282   1.413   1_565  A
C281        C286   1.410       .  A
C281        C299   1.450       .  S
C282        C287   1.496       .  S
C282        C283   1.412       .  A
C283        C284   1.409       .  A
C283        C288   1.450       .  S
C284        C285   1.410       .  A
C284        C300   1.451       .  S
C285        C286   1.409   1_545  A
C286        C289   1.450       .  S
C287        C290   1.411       .  A
C287        C294   1.412       .  A
C288        N305   1.157       .  T
C289        N307   1.157       .  T
C290        C291   1.411       .  A
C290        C295   1.451       .  S
C291        C292   1.412       .  A
C291        C297   1.449       .  S
C292        C293   1.411       .  A
C293        C294   1.409       .  A
C293        C296   1.451   1_545  S
C294        C298   1.451   1_545  S
C295        N302   1.157       .  T
C296        N303   1.157       .  T
C297        N301   1.157       .  T
C298        N304   1.157       .  T
C299        N308   1.157       .  T
C300        N306   1.157       .  T
C309        C310   1.407       .  A
C309        C314   1.413       .  A
C309        C327   1.452       .  S
C310        C315   1.497       .  S
C310        C311   1.407   1_545  A
C311        C312   1.411       .  A
C311        C316   1.453       .  S
C312        C313   1.426   1_565  A
C312        C328   1.451       .  S
C313        C314   1.427       .  A
C314        C317   1.452       .  S
C315        C318   1.409       .  A
C315        C322   1.411       .  A
C316        N333   1.157       .  T
C317        N335   1.158       .  T
C318        C319   1.408       .  A
C318        C323   1.452       .  S
C319        C320   1.421       .  A
C319        C325   1.452       .  S
C320        C321   1.419   1_545  A
C321        C322   1.412   1_565  A
C321        C324   1.451       .  S
C322        C326   1.451   1_545  S
C323        N330   1.157       .  T
C324        N331   1.157       .  T
C325        N917   1.158   1_554  T
C326        N332   1.157       .  T
C327        N336   1.157       .  T
C328        N334   1.158       .  T
N329        C913   1.158       .  T
C337        C338   1.412       .  A
C337        C342   1.414       .  A
C337        C355   1.449       .  S
C338        C343   1.503       .  S
C338        C927   1.411   1_545  A
C339        C340   1.414       .  A
C339        C926   1.411   1_565  A
C339        C344   1.450   1_556  S
C340        C929   1.413   1_565  A
C340        C356   1.449       .  S
C341        C342   1.413       .  A
C341        C928   1.413   1_545  A
C342        C345   1.450       .  S
C343        C350   1.405   1_545  A
C343        C934   1.405       .  A
C344        N361   1.157       .  T
C345        N363   1.157       .  T
C346        C347   1.415       .  A
C346        C931   1.405   1_554  A
C346        C351   1.453       .  S
C347        C936   1.427   1_554  A
C347        C353   1.444       .  S
C348        C349   1.425   1_545  A
C348        C935   1.427       .  A
C349        C350   1.415       .  A
C349        C352   1.445       .  S
C350        C354   1.451       .  S
C351        N358   1.157       .  T
C352        N359   1.157       .  T
C353        N357   1.157       .  T
C354        N360   1.157       .  T
C355        N364   1.157       .  T
C356        N362   1.157   1_556  T
C365        C366   1.409   1_565  A
C365        C370   1.410       .  A
C365        C383   1.451       .  S
C366        C371   1.498       .  S
C366        C367   1.411       .  A
C367        C368   1.415       .  A
C367        C372   1.450       .  S
C368        C369   1.415       .  A
C368        C384   1.449       .  S
C369        C370   1.418   1_545  A
C370        C373   1.452       .  S
C371        C374   1.411       .  A
C371        C378   1.409   1_545  A
C372        N389   1.157       .  T
C373        N391   1.157       .  T
C374        C375   1.412       .  A
C374        C379   1.451       .  S
C375        C376   1.417       .  A
C375        C381   1.452       .  S
C376        C377   1.417   1_545  A
C377        C378   1.412       .  A
C377        C380   1.451       .  S
C378        C382   1.450       .  S
C379        N386   1.157       .  T
C380        N387   1.157       .  T
C381        N385   1.157       .  T
C382        N388   1.157       .  T
C383        N392   1.157       .  T
C384        N390   1.157       .  T
C393        C394   1.408       .  A
C393        C398   1.409       .  A
C393        C411   1.451       .  S
C394        C399   1.498       .  S
C394        C395   1.411   1_545  A
C395        C396   1.415       .  A
C395        C400   1.450       .  S
C396        C397   1.416   1_565  A
C396        C412   1.449       .  S
C397        C398   1.419       .  A
C398        C401   1.452       .  S
C399        C402   1.410   1_545  A
C399        C406   1.410       .  A
C400        N417   1.157       .  T
C401        N419   1.157   1_554  T
C402        C403   1.411       .  A
C402        C407   1.451       .  S
C403        C404   1.416   1_565  A
C403        C409   1.450       .  S
C404        C405   1.417       .  A
C405        C406   1.413       .  A
C405        C408   1.450       .  S
C406        C410   1.450       .  S
C407        N414   1.157       .  T
C408        N415   1.157       .  T
C409        N413   1.157       .  T
C410        N416   1.157       .  T
C411        N420   1.157       .  T
C412        N418   1.157       .  T
C421        C426   1.409       .  A
C421       C1010   1.404       .  A
C421        C439   1.453       .  S
C422        C427   1.495       .  S
C422        C423   1.405       .  A
C422       C1009   1.404       .  A
C423        C424   1.412       .  A
C423        C428   1.453       .  S
C424        C425   1.424       .  A
C424        C440   1.445       .  S
C425       C1014   1.422       .  A
C426       C1013   1.422   1_554  A
C426        C429   1.444       .  S
C427        C430   1.409       .  A
C427       C1022   1.410       .  A
C428        N445   1.157       .  T
C429        N447   1.157       .  T
C430        C431   1.411       .  A
C430        C435   1.452       .  S
C431        C432   1.420       .  A
C431        C437   1.451       .  S
C432        C595   1.492       .  S
C432       C1021   1.417       .  A
C433        C434   1.409       .  A
C433       C1020   1.417       .  A
C433        C436   1.451       .  S
C434       C1015   1.410       .  A
C434        C438   1.452       .  S
C435        N442   1.157       .  T
C436        N443   1.157       .  T
C437        N441   1.157       .  T
C438        N444   1.157       .  T
C439        N448   1.157       .  T
C440        N446   1.157       .  T
C449        C450   1.409       .  A
C449        C454   1.411       .  A
C449        C467   1.450       .  S
C450        C455   1.493       .  S
C450        C451   1.409       .  A
C451        C452   1.408       .  A
C451        C456   1.451       .  S
C452        C453   1.416       .  A
C452        C468   1.452       .  S
C453        C454   1.416       .  A
C454        C457   1.451       .  S
C455        C458   1.409       .  A
C455        C462   1.409       .  A
C456        N473   1.157       .  T
C457        N475   1.157       .  T
C458        C459   1.409       .  A
C458        C463   1.451       .  S
C459        C460   1.417       .  A
C459        C465   1.452       .  S
C460        C461   1.416       .  A
C461        C462   1.410       .  A
C461        C464   1.451       .  S
C462        C466   1.451       .  S
C463        N470   1.157       .  T
C464        N471   1.157       .  T
C465        N469   1.157       .  T
C466        N472   1.157       .  T
C467        N476   1.157       .  T
C468        N474   1.157       .  T
C477        C478   1.412       .  A
C477        C482   1.412       .  A
C477        C495   1.449       .  S
C478        C483   1.497       .  S
C478        C479   1.411       .  A
C479        C480   1.410       .  A
C479        C484   1.450       .  S
C480        C481   1.411       .  A
C480        C496   1.451       .  S
C481        C482   1.412       .  A
C482        C485   1.450       .  S
C483        C486   1.413       .  A
C483        C490   1.410       .  A
C484        N501   1.157       .  T
C485        N503   1.157       .  T
C486        C487   1.411       .  A
C486        C491   1.451       .  S
C487        C488   1.412       .  A
C487        C493   1.451       .  S
C488        C489   1.414       .  A
C489        C490   1.412       .  A
C489        C492   1.451       .  S
C490        C494   1.450       .  S
C491        N498   1.157       .  T
C492        N499   1.157       .  T
C493        N497   1.157       .  T
C494        N500   1.157       .  T
C495        N504   1.157       .  T
C496        N502   1.157       .  T
C505        C506   1.405       .  A
C505        C510   1.412       .  A
C505        C523   1.454       .  S
C506        C511   1.498       .  S
C506       C1095   1.405       .  A
C507        C508   1.413       .  A
C507       C1094   1.405       .  A
C507        C512   1.452       .  S
C508       C1097   1.424       .  A
C508        C524   1.446       .  S
C509        C510   1.425       .  A
C509       C1096   1.424       .  A
C510        C513   1.444       .  S
C511        C518   1.411       .  A
C511       C1102   1.411       .  A
C512        N529   1.157       .  T
C513        N531   1.157       .  T
C514        C515   1.412       .  A
C514       C1099   1.411       .  A
C514        C519   1.451       .  S
C515       C1104   1.416       .  A
C515        C521   1.451       .  S
C516        C517   1.416       .  A
C516       C1103   1.416       .  A
C517        C518   1.410       .  A
C517        C520   1.451       .  S
C518        C522   1.451       .  S
C519        N526   1.157       .  T
C520        N527   1.157       .  T
C521        N525   1.157       .  T
C522        N528   1.157       .  T
C523        N532   1.157       .  T
C524        N530   1.157       .  T
C533        C534   1.410       .  A
C533        C538   1.411       .  A
C533        C551   1.450       .  S
C534        C539   1.494       .  S
C534        C535   1.412       .  A
C535        C536   1.409       .  A
C535        C540   1.451       .  S
C536        C537   1.411       .  A
C536        C552   1.451       .  S
C537        C538   1.413       .  A
C538        C541   1.451       .  S
C539        C542   1.411       .  A
C539        C546   1.410       .  A
C540        N557   1.157       .  T
C541        N559   1.157       .  T
C542        C543   1.410       .  A
C542        C547   1.451       .  S
C543        C544   1.413       .  A
C543        C549   1.451       .  S
C544        C545   1.413       .  A
C545        C546   1.410       .  A
C545        C548   1.451       .  S
C546        C550   1.450       .  S
C547        N554   1.157       .  T
C548        N555   1.157       .  T
C549       N1141   1.157       .  T
C550        N556   1.157       .  T
C551        N560   1.157       .  T
C552        N558   1.157       .  T
N553       C1137   1.157       .  T
C561        C562   1.407       .  A
C561        C566   1.406       .  A
C561        C579   1.452       .  S
C562        C567   1.492       .  S
C562        C563   1.409       .  A
C563        C564   1.413       .  A
C563        C568   1.451       .  S
C564        C565   1.419       .  A
C564        C580   1.451       .  S
C565        C566   1.421       .  A
C566        C569   1.452       .  S
C567        C570   1.408       .  A
C567        C574   1.410       .  A
C568        N585   1.157       .  T
C569        N587   1.157       .  T
C570        C571   1.410       .  A
C570        C575   1.451       .  S
C571        C572   1.419       .  A
C571        C577   1.451       .  S
C572        C573   1.417       .  A
C573        C574   1.409       .  A
C573        C576   1.452       .  S
C574        C578   1.452       .  S
C575        N582   1.157       .  T
C576        N583   1.157       .  T
C577        N581   1.157       .  T
C578        N584   1.157       .  T
C579        N588   1.157       .  T
C580        N586   1.158       .  T
C589        N594   1.361   1_554  A
C589       C1104   1.490       .  S
N590        C591   1.360       .  A
C591        N592   1.355       .  A
C591       C1153   1.493       .  S
C593        N594   1.357       .  A
C593       C1132   1.480       .  S
C595        N596   1.362       .  A
N596        C597   1.359       .  A
C597        N598   1.356       .  A
C597       C1069   1.481       .  S
C599        N600   1.357       .  A
C599       C1048   1.488       .  S
O601       Ni609   1.916       .  S
O601        C611   1.281       .  A
O602       Ni609   1.915       .  S
O602        C612   1.281       .  A
O603       Ni609   1.920       .  S
O603        C613   1.281       .  A
O604       Ni609   1.921       .  S
O604        C614   1.281       .  A
O605       Ni610   1.918       .  S
O605        C614   1.281       .  A
O606       Ni610   1.914       .  S
O606        C613   1.280       .  A
O607       Ni610   1.913       .  S
O607        C612   1.281       .  A
O608       Ni610   1.914       .  S
O608        C611   1.281       .  A
Ni609      Ni610   2.390       .  S
C611       C1041   1.486       .  S
C612       C1160   1.488       .  S
C613       C1125   1.478       .  S
C614       C1076   1.483       .  S
C615        N620   1.365       .  A
C615        C929   1.489       .  S
N616        C617   1.361       .  A
C617        C985   1.494       .  S
N618        C619   1.354       .  A
C619        N620   1.363       .  A
C619        C957   1.492       .  S
C621        N626   1.361       .  A
C621        C845   1.489       .  S
N622        C623   1.360       .  A
C623        C908   1.495       .  S
N624        C625   1.352       .  A
C625        N626   1.357       .  A
C625        C873   1.474       .  S
O627       Ni635   1.922       .  S
O627        C637   1.282       .  A
O628       Ni635   1.919       .  S
O628        C638   1.282       .  A
O629       Ni635   1.922       .  S
O629        C639   1.281       .  A
O630       Ni635   1.922       .  S
O630        C640   1.282       .  A
O631       Ni636   1.920       .  S
O631        C640   1.282   1_565  A
O632       Ni636   1.915       .  S
O632        C639   1.279   1_565  A
O633       Ni636   1.918       .  S
O633        C638   1.281   1_565  A
O634       Ni636   1.917       .  S
O634        C637   1.282   1_565  A
Ni635      Ni636   2.384   1_545  S
C637        C964   1.491       .  S
C638        C901   1.509       .  S
C639        C880   1.479       .  S
C640        C992   1.493       .  S
C641        N642   1.360   1_554  A
C641        C761   1.481       .  S
N642        C643   1.358       .  A
C643        N644   1.354   1_556  A
C643        C817   1.480       .  S
C645        N646   1.361       .  A
C645        C796   1.489       .  S
C647        N648   1.359       .  A
N648        C649   1.357       .  A
C649        N650   1.355       .  A
C649        C740   1.481       .  S
C651        N652   1.362       .  A
C651        C712   1.493       .  S
O653       Ni661   1.920       .  S
O653        C663   1.282   1_655  A
O654       Ni661   1.919       .  S
O654        C664   1.282   1_655  A
O655       Ni661   1.915       .  S
O655        C665   1.281   1_655  A
O656       Ni661   1.917       .  S
O656        C666   1.281   1_655  A
O657       Ni662   1.915       .  S
O657        C666   1.281       .  A
O658       Ni662   1.914       .  S
O658        C665   1.280       .  A
O659       Ni662   1.917       .  S
O659        C664   1.281       .  A
O660       Ni662   1.917       .  S
O660        C663   1.281       .  A
Ni661      Ni662   2.390   1_655  S
C663        C789   1.485       .  S
C664        C705   1.484       .  S
C665        C733   1.480       .  S
C666        C824   1.484       .  S
C667       C1097   1.524       .  S
C667        C668   1.437       .  A
C667        C672   1.438   1_554  A
C668        C768   1.522       .  S
C668        C669   1.436   1_454  A
C669        C936   1.529       .  S
C669        C670   1.440   1_545  A
C670       C1013   1.518       .  S
C670        C671   1.439   1_655  A
C671        C677   1.527   1_556  S
C671        C672   1.434   1_565  A
C672        C852   1.522       .  S
C673        C674   1.404   1_556  A
C673        C678   1.414       .  A
C673        C691   1.454       .  S
C674        C679   1.502       .  S
C675        C676   1.416       .  A
C675        C680   1.451       .  S
C676        C692   1.446       .  S
C677        C678   1.426   1_554  A
C678        C681   1.444       .  S
C679        C682   1.413       .  A
C680        N697   1.157       .  T
C681        N699   1.157       .  T
C682        C683   1.411       .  A
C682        C687   1.450       .  S
C683        C684   1.411       .  A
C683        C689   1.450       .  S
C685        C686   1.414       .  A
C685        C688   1.450       .  S
C686        C690   1.450       .  S
C687        N694   1.157       .  T
C688        N695   1.157       .  T
C689        N693   1.157       .  T
C690        N696   1.157       .  T
C691        N700   1.157       .  T
C692        N698   1.157       .  T
C701        C702   1.410       .  A
C701        C706   1.412       .  A
C701        C719   1.450       .  S
C702        C707   1.498       .  S
C702        C703   1.412   1_455  A
C703        C704   1.411       .  A
C703        C708   1.451       .  S
C704        C705   1.413   1_655  A
C704        C720   1.451       .  S
C705        C706   1.415       .  A
C706        C709   1.451       .  S
C707        C710   1.410   1_455  A
C707        C714   1.409       .  A
C708        N725   1.157       .  T
C709        N727   1.157       .  T
C710        C711   1.414       .  A
C710        C715   1.450       .  S
C711        C712   1.416   1_655  A
C711        C717   1.450       .  S
C712        C713   1.418       .  A
C713        C714   1.410       .  A
C713        C716   1.451       .  S
C714        C718   1.452       .  S
C715        N722   1.157       .  T
C716        N723   1.157       .  T
C717        N721   1.157       .  T
C718        N724   1.157       .  T
C719        N728   1.157       .  T
C720        N726   1.157       .  T
C729        C730   1.410   1_655  A
C729        C734   1.410       .  A
C729        C747   1.450       .  S
C730        C735   1.492       .  S
C730        C731   1.411       .  A
C731        C732   1.408       .  A
C731        C736   1.451       .  S
C732        C733   1.413       .  A
C732        C748   1.452       .  S
C733        C734   1.414   1_455  A
C734        C737   1.451       .  S
C735        C738   1.410       .  A
C735        C742   1.409   1_455  A
C736        N753   1.157       .  T
C737        N755   1.157       .  T
C738        C739   1.411       .  A
C738        C743   1.450       .  S
C739        C740   1.413       .  A
C739        C745   1.450       .  S
C740        C741   1.413   1_455  A
C741        C742   1.408       .  A
C741        C744   1.452       .  S
C742        C746   1.451       .  S
C743        N750   1.157       .  T
C744        N751   1.157       .  T
C745        N749   1.157       .  T
C746        N752   1.157       .  T
C747        N756   1.157       .  T
C748        N754   1.157       .  T
C757        C762   1.412       .  A
C757        C775   1.450       .  S
C758        C763   1.499       .  S
C758        C759   1.412       .  A
C759        C760   1.411       .  A
C759        C764   1.450   1_554  S
C760        C761   1.411       .  A
C760        C776   1.450   1_554  S
C762        C765   1.450       .  S
C763        C766   1.405   1_454  A
C764        N781   1.157       .  T
C765        N783   1.157       .  T
C766        C767   1.414       .  A
C766        C771   1.453       .  S
C767        C768   1.424   1_656  A
C767        C773   1.445       .  S
C769        C770   1.413       .  A
C769        C772   1.445       .  S
C770        C774   1.452       .  S
C771        N778   1.157       .  T
C772        N779   1.157       .  T
C773        N777   1.157       .  T
C774        N780   1.157       .  T
C775        N784   1.157       .  T
C776        N782   1.157       .  T
C785        C786   1.410       .  A
C785        C790   1.412       .  A
C785        C803   1.450       .  S
C786        C791   1.497       .  S
C786        C787   1.411   1_455  A
C787        C788   1.410       .  A
C787        C792   1.451       .  S
C788        C789   1.414   1_655  A
C788        C804   1.451       .  S
C789        C790   1.415       .  A
C790        C793   1.451       .  S
C791        C794   1.411   1_455  A
C791        C798   1.409       .  A
C792        N809   1.157       .  T
C793        N811   1.157       .  T
C794        C795   1.413       .  A
C794        C799   1.450       .  S
C795        C796   1.415   1_655  A
C795        C801   1.450       .  S
C796        C797   1.417       .  A
C797        C798   1.410       .  A
C797        C800   1.452       .  S
C798        C802   1.451       .  S
C799        N806   1.157       .  T
C801        N805   1.157       .  T
C802        N808   1.157       .  T
C803        N812   1.157       .  T
C804        N810   1.157       .  T
C813        C814   1.412       .  A
C813        C818   1.411       .  A
C813        C831   1.450       .  S
C814        C819   1.496       .  S
C814        C815   1.411   1_455  A
C815        C816   1.409       .  A
C815        C820   1.451       .  S
C816        C817   1.412   1_655  A
C816        C832   1.451       .  S
C817        C818   1.412       .  A
C818        C821   1.450       .  S
C819        C822   1.410   1_455  A
C819        C826   1.411       .  A
C820        N837   1.157       .  T
C821        N839   1.157       .  T
C822        C823   1.411       .  A
C822        C827   1.450       .  S
C823        C824   1.415   1_655  A
C823        C829   1.451       .  S
C824        C825   1.414       .  A
C825        C826   1.410       .  A
C825        C828   1.452       .  S
C826        C830   1.451       .  S
C827        N834   1.157       .  T
C828        N835   1.157       .  T
C829        N833   1.157       .  T
C830        N836   1.157       .  T
C831        N840   1.157       .  T
C832        N838   1.157       .  T
C841        C846   1.411       .  A
C841        C859   1.451       .  S
C842        C847   1.498       .  S
C842        C843   1.411   1_545  A
C843        C844   1.411       .  A
C843        C848   1.451       .  S
C844        C845   1.416   1_565  A
C844        C860   1.451       .  S
C846        C849   1.451       .  S
C847        C850   1.405       .  A
C848        N865   1.157       .  T
C849        N867   1.157       .  T
C850        C851   1.412       .  A
C850        C855   1.451       .  S
C851        C852   1.423       .  A
C851        C857   1.447       .  S
C853        C854   1.412       .  A
C853        C856   1.443       .  S
C854        C858   1.454       .  S
C855        N862   1.157       .  T
C856        N863   1.157       .  T
C857        N861   1.157       .  T
C858        N864   1.157       .  T
C859        N868   1.157       .  T
C860        N866   1.157       .  T
C869        C870   1.413   1_565  A
C869        C874   1.410       .  A
C869        C887   1.450       .  S
C870        C875   1.496       .  S
C870        C871   1.412       .  A
C871        C872   1.409       .  A
C871        C876   1.450       .  S
C872        C873   1.410       .  A
C872        C888   1.451       .  S
C873        C874   1.409   1_545  A
C874        C877   1.450       .  S
C875        C878   1.411       .  A
C875        C882   1.412       .  A
C876        N893   1.157       .  T
C877        N895   1.157       .  T
C878        C879   1.411       .  A
C878        C883   1.451       .  S
C879        C880   1.412       .  A
C879        C885   1.449       .  S
C880        C881   1.411       .  A
C881        C882   1.409       .  A
C881        C884   1.451   1_545  S
C882        C886   1.451   1_545  S
C883        N890   1.157       .  T
C884        N891   1.157       .  T
C885        N889   1.157       .  T
C886        N892   1.157       .  T
C887        N896   1.157       .  T
C888        N894   1.157       .  T
C897        C898   1.407       .  A
C897        C902   1.413       .  A
C897        C915   1.452       .  S
C898        C903   1.497       .  S
C898        C899   1.407   1_545  A
C899        C900   1.411       .  A
C899        C904   1.453       .  S
C900        C901   1.426   1_565  A
C900        C916   1.451       .  S
C901        C902   1.427       .  A
C902        C905   1.452       .  S
C903        C906   1.409       .  A
C903        C910   1.411       .  A
C904        N921   1.157       .  T
C905        N923   1.158       .  T
C906        C907   1.408       .  A
C906        C911   1.452       .  S
C907        C908   1.421       .  A
C907        C913   1.452       .  S
C908        C909   1.419   1_545  A
C909        C910   1.412   1_565  A
C909        C912   1.451       .  S
C910        C914   1.451   1_545  S
C911        N918   1.157       .  T
C912        N919   1.157       .  T
C914        N920   1.157       .  T
C915        N924   1.157       .  T
C916        N922   1.158       .  T
C925        C926   1.412       .  A
C925        C930   1.414       .  A
C925        C943   1.449       .  S
C926        C931   1.503       .  S
C927        C928   1.414       .  A
C927        C932   1.450       .  S
C928        C944   1.449       .  S
C929        C930   1.413       .  A
C930        C933   1.450       .  S
C931        C938   1.405   1_545  A
C932        N949   1.157       .  T
C933        N951   1.157       .  T
C934        C935   1.415       .  A
C934        C939   1.453       .  S
C935        C941   1.444       .  S
C936        C937   1.425   1_545  A
C937        C938   1.415       .  A
C937        C940   1.445       .  S
C938        C942   1.451       .  S
C939        N946   1.157       .  T
C940        N947   1.157       .  T
C941        N945   1.157       .  T
C942        N948   1.157       .  T
C943        N952   1.157       .  T
C944        N950   1.157       .  T
C953        C954   1.409   1_565  A
C953        C958   1.410       .  A
C953        C971   1.451       .  S
C954        C959   1.498       .  S
C954        C955   1.411       .  A
C955        C956   1.415       .  A
C955        C960   1.450       .  S
C956        C957   1.415       .  A
C956        C972   1.449       .  S
C957        C958   1.418   1_545  A
C958        C961   1.452       .  S
C959        C962   1.411       .  A
C959        C966   1.409   1_545  A
C960        N977   1.157       .  T
C961        N979   1.157       .  T
C962        C963   1.412       .  A
C962        C967   1.451       .  S
C963        C964   1.417       .  A
C963        C969   1.452       .  S
C964        C965   1.417   1_545  A
C965        C966   1.412       .  A
C965        C968   1.451       .  S
C966        C970   1.450       .  S
C967        N974   1.157       .  T
C968        N975   1.157       .  T
C969        N973   1.157       .  T
C970        N976   1.157       .  T
C971        N980   1.157       .  T
C972        N978   1.157       .  T
C981        C982   1.408       .  A
C981        C986   1.409       .  A
C981        C999   1.451       .  S
C982        C987   1.498       .  S
C982        C983   1.411   1_545  A
C983        C984   1.415       .  A
C983        C988   1.450       .  S
C984        C985   1.417   1_565  A
C984       C1000   1.449       .  S
C985        C986   1.419       .  A
C986        C989   1.452       .  S
C987        C990   1.410   1_545  A
C987        C994   1.410       .  A
C988       N1005   1.157       .  T
C989       N1007   1.157       .  T
C990        C991   1.411       .  A
C990        C995   1.451       .  S
C991        C992   1.416   1_565  A
C991        C997   1.450       .  S
C992        C993   1.417       .  A
C993        C994   1.413       .  A
C993        C996   1.450       .  S
C994        C998   1.450       .  S
C995       N1002   1.157       .  T
C996       N1003   1.157       .  T
C997       N1001   1.157       .  T
C998       N1004   1.157       .  T
C999       N1008   1.157       .  T
C1000      N1006   1.157       .  T
C1009      C1014   1.409       .  A
C1009      C1027   1.453       .  S
C1010      C1015   1.495       .  S
C1010      C1011   1.405   1_554  A
C1011      C1012   1.412       .  A
C1011      C1016   1.453       .  S
C1012      C1013   1.424       .  A
C1012      C1028   1.445       .  S
C1014      C1017   1.444       .  S
C1015      C1018   1.409   1_554  A
C1016      N1033   1.157       .  T
C1017      N1035   1.157       .  T
C1018      C1019   1.411       .  A
C1018      C1023   1.452       .  S
C1019      C1020   1.420   1_556  A
C1019      C1025   1.451       .  S
C1021      C1022   1.409       .  A
C1021      C1024   1.451       .  S
C1022      C1026   1.452       .  S
C1023      N1030   1.157       .  T
C1024      N1031   1.157       .  T
C1025      N1029   1.157       .  T
C1026      N1032   1.157       .  T
C1027      N1036   1.157       .  T
C1028      N1034   1.157       .  T
C1037      C1038   1.409       .  A
C1037      C1042   1.411       .  A
C1037      C1055   1.450       .  S
C1038      C1043   1.493       .  S
C1038      C1039   1.409       .  A
C1039      C1040   1.408       .  A
C1039      C1044   1.451       .  S
C1040      C1041   1.416       .  A
C1040      C1056   1.452       .  S
C1041      C1042   1.416       .  A
C1042      C1045   1.451       .  S
C1043      C1046   1.409       .  A
C1043      C1050   1.409       .  A
C1044      N1061   1.157       .  T
C1045      N1063   1.157       .  T
C1046      C1047   1.409       .  A
C1046      C1051   1.451       .  S
C1047      C1048   1.417       .  A
C1047      C1053   1.452       .  S
C1048      C1049   1.416       .  A
C1049      C1050   1.410       .  A
C1049      C1052   1.451       .  S
C1050      C1054   1.451       .  S
C1051      N1058   1.157       .  T
C1052      N1059   1.157       .  T
C1053      N1057   1.157   1_556  T
C1054      N1060   1.157       .  T
C1055      N1064   1.157       .  T
C1056      N1062   1.157       .  T
C1065      C1066   1.412       .  A
C1065      C1070   1.412       .  A
C1065      C1083   1.449       .  S
C1066      C1071   1.497       .  S
C1066      C1067   1.411       .  A
C1067      C1068   1.410       .  A
C1067      C1072   1.450       .  S
C1068      C1069   1.411       .  A
C1068      C1084   1.451       .  S
C1069      C1070   1.412       .  A
C1070      C1073   1.450       .  S
C1071      C1074   1.413       .  A
C1071      C1078   1.410       .  A
C1072      N1089   1.157       .  T
C1073      N1091   1.157       .  T
C1074      C1075   1.411       .  A
C1074      C1079   1.451       .  S
C1075      C1076   1.412       .  A
C1075      C1081   1.451       .  S
C1076      C1077   1.414       .  A
C1077      C1078   1.412       .  A
C1077      C1080   1.451       .  S
C1078      C1082   1.450       .  S
C1079      N1086   1.157       .  T
C1080      N1087   1.157       .  T
C1081      N1085   1.157       .  T
C1082      N1088   1.157       .  T
C1083      N1092   1.157       .  T
C1084      N1090   1.157       .  T
C1093      C1094   1.405   1_556  A
C1093      C1098   1.412       .  A
C1093      C1111   1.454       .  S
C1094      C1099   1.498       .  S
C1095      C1096   1.413       .  A
C1095      C1100   1.452       .  S
C1096      C1112   1.446       .  S
C1097      C1098   1.425   1_554  A
C1098      C1101   1.444       .  S
C1099      C1106   1.411   1_554  A
C1100      N1117   1.157       .  T
C1101      N1119   1.157       .  T
C1102      C1103   1.412       .  A
C1102      C1107   1.451       .  S
C1103      C1109   1.451       .  S
C1104      C1105   1.416   1_554  A
C1105      C1106   1.410       .  A
C1105      C1108   1.451       .  S
C1106      C1110   1.451       .  S
C1107      N1114   1.157       .  T
C1108      N1115   1.157       .  T
C1109      N1113   1.157       .  T
C1110      N1116   1.157       .  T
C1111      N1120   1.157       .  T
C1112      N1118   1.157       .  T
C1121      C1122   1.410       .  A
C1121      C1126   1.411       .  A
C1121      C1139   1.450       .  S
C1122      C1127   1.494       .  S
C1122      C1123   1.412       .  A
C1123      C1124   1.409       .  A
C1123      C1128   1.451       .  S
C1124      C1125   1.411       .  A
C1124      C1140   1.451       .  S
C1125      C1126   1.413       .  A
C1126      C1129   1.451       .  S
C1127      C1130   1.411       .  A
C1127      C1134   1.410       .  A
C1128      N1145   1.157       .  T
C1129      N1147   1.157       .  T
C1130      C1131   1.410       .  A
C1130      C1135   1.451       .  S
C1131      C1132   1.413       .  A
C1131      C1137   1.451       .  S
C1132      C1133   1.413       .  A
C1133      C1134   1.410       .  A
C1133      C1136   1.451       .  S
C1134      C1138   1.450       .  S
C1135      N1142   1.157       .  T
C1136      N1143   1.157       .  T
C1138      N1144   1.157       .  T
C1139      N1148   1.157       .  T
C1140      N1146   1.157       .  T
C1149      C1150   1.407       .  A
C1149      C1154   1.406       .  A
C1149      C1167   1.452       .  S
C1150      C1155   1.492       .  S
C1150      C1151   1.409       .  A
C1151      C1152   1.413       .  A
C1151      C1156   1.451       .  S
C1152      C1153   1.419       .  A
C1152      C1168   1.451       .  S
C1153      C1154   1.421       .  A
C1154      C1157   1.452       .  S
C1155      C1158   1.408       .  A
C1155      C1162   1.410       .  A
C1156      N1173   1.157       .  T
C1157      N1175   1.157       .  T
C1158      C1159   1.410       .  A
C1158      C1163   1.451       .  S
C1159      C1160   1.419       .  A
C1159      C1165   1.451       .  S
C1160      C1161   1.417       .  A
C1161      C1162   1.409       .  A
C1161      C1164   1.452       .  S
C1162      C1166   1.452       .  S
C1163      N1170   1.157       .  T
C1164      N1171   1.157       .  T
C1165      N1169   1.157       .  T
C1166      N1172   1.157       .  T
C1167      N1176   1.157       .  T
C1168      N1174   1.158       .  T
