geometry optimzed in LAMMPS
_audit_creation_date              2020-11-30 
_audit_creation_method            'lammps2cif' 
_symmetry_space_group_name_H-M    'P1' 
_symmetry_Int_Tables_number       1 
_symmetry_cell_setting            triclinic 
loop_ 
_symmetry_equiv_pos_as_xyz 
  x,y,z 
_cell_length_a                    41.16664965 
_cell_length_b                    42.12738515316668 
_cell_length_c                    36.00110990940803 
_cell_angle_alpha                 89.8093686605611 
_cell_angle_beta                  89.61063698027915 
_cell_angle_gamma                 119.64621409052383 
loop_ 
_atom_site_label 
_atom_site_type_symbol 
_atom_site_fract_x 
_atom_site_fract_y 
_atom_site_fract_z 
_atom_site_charge 
O1          O  0.37708549  0.22486281  0.21538393    -0.80000
C2          C  0.27084251  0.09683063  0.29183961     0.99300
O3          O  0.26403155  0.11973386  0.27589952    -0.69100
O4          O  0.29906243  0.19092967  0.28624511    -0.72700
Al5        Al  0.29344335  0.16137469  0.24410393     1.49000
C6          C  0.32709531  0.21957920  0.29725462     0.94600
O7          O  0.38732750  0.18378675  0.30590847    -0.79000
O8          O  0.37455619  0.13508255  0.20992189    -0.72500
Al9        Al  0.37949325  0.20195008  0.25979677     1.90100
O10         O  0.37290601  0.12933733  0.28588602    -0.71600
O11         O  0.30140525  0.09644507  0.21030012    -0.71400
O12         O  0.30053757  0.09608323  0.28532021    -0.77100
O13         O  0.27741152  0.13157736  0.20052651    -0.75300
O14         O  0.33643651  0.16051302  0.25048547    -1.11400
O15         O  0.31625395  0.20324192  0.21147051    -0.70600
C16         C  0.34952226  0.22550618  0.20109707     1.00100
C17         C  0.38802762  0.15424379  0.30954500     0.96500
Al18       Al  0.33720109  0.11827477  0.24799177     1.55600
O19         O  0.35928875  0.22665078  0.28740945    -0.75300
C20         C  0.27950639  0.10353378  0.19287215     1.00700
C21         C  0.40595360  0.16369198  0.21162227     0.95500
O22         O  0.41121752  0.18890911  0.23356828    -0.80600
O23         O  0.22074334  0.35613594  0.29523997    -0.80000
C24         C  0.09888313  0.27631018  0.19507701     0.99300
O25         O  0.11464880  0.26421532  0.21623093    -0.69100
O26         O  0.18779443  0.29766345  0.20600055    -0.72700
Al27       Al  0.15693787  0.28742679  0.24853304     1.49000
C28         C  0.22005819  0.32482846  0.20129399     0.94600
O29         O  0.20038062  0.39476421  0.20874244    -0.79000
O30         O  0.12817713  0.36181152  0.28713535    -0.72500
Al31       Al  0.20622351  0.37187115  0.25170486     1.90100
O32         O  0.14121741  0.37816008  0.21388556    -0.71600
O33         O  0.08884259  0.29352392  0.27215493    -0.71400
O34         O  0.10544236  0.30868649  0.19813711    -0.77100
O35         O  0.12572456  0.27312995  0.29154452    -0.75300
O36         O  0.16121033  0.33175894  0.24783292    -1.11400
O37         O  0.19796984  0.29889905  0.28043703    -0.70600
C38         C  0.22019318  0.32616591  0.29906955     1.00100
C39         C  0.17290957  0.39830140  0.19973584     0.96500
Al40       Al  0.11978787  0.33527774  0.24313708     1.55600
O41         O  0.23104308  0.35381455  0.21989175    -0.75300
C42         C  0.09580718  0.27447931  0.29417668     1.00700
C43         C  0.15765926  0.38871651  0.29854015     0.95500
O44         O  0.18921824  0.39692404  0.28449151    -0.80600
C45         C  0.36949063  0.35736709  0.12357848     0.04900
C46         C  0.34208367  0.36489066  0.13826125    -0.11300
C47         C  0.31003854  0.33757737  0.15609860     0.02400
C48         C  0.30618987  0.30292950  0.16110861    -0.09800
C49         C  0.33409189  0.29540695  0.14942685     0.04900
C50         C  0.36577897  0.32265002  0.13036036    -0.09200
H51         H  0.34532750  0.39192158  0.13610295     0.10500
H52         H  0.28246771  0.28223622  0.17667549     0.08000
H53         H  0.38708123  0.31672708  0.12037191     0.07900
C54         C  0.37225060  0.36823325  0.37689193     0.04900
C55         C  0.34127466  0.37193886  0.36634923    -0.11300
C56         C  0.31215914  0.34476066  0.34514087     0.02400
C57         C  0.31473960  0.31400358  0.33387961    -0.09800
C58         C  0.34535873  0.30980969  0.34390127     0.04900
C59         C  0.37380277  0.33705138  0.36537578    -0.09200
H60         H  0.33925007  0.39547623  0.37500083     0.10500
H61         H  0.29408194  0.29440394  0.31530723     0.08000
H62         H  0.39760874  0.33407073  0.37294160     0.07900
C63         C  0.12494423  0.99176742  0.37996536     0.04900
C64         C  0.15256878  0.02567334  0.36504672    -0.11900
C65         C  0.18006247  0.02716697  0.34065591     0.02400
C66         C  0.17913950  0.99453268  0.33075529    -0.09800
C67         C  0.18046438  0.47120749  0.35888034     0.04900
C68         C  0.14829322  0.46653972  0.37789062    -0.09200
H69         H  0.15348938  0.05088643  0.37279026     0.10500
H70         H  0.19849174  0.99522676  0.30982787     0.08000
H71         H  0.12577626  0.43930712  0.38433963     0.07900
C72         C  0.13267715  0.50547368  0.12012780     0.04900
C73         C  0.12915353  0.47151594  0.13035161    -0.11300
C74         C  0.15644036  0.46992983  0.15204315     0.02400
C75         C  0.18687283  0.50244355  0.16454352    -0.09800
C76         C  0.19019011  0.03392127  0.14372910     0.04900
C77         C  0.16052496  0.03146614  0.12220427    -0.09200
H78         H  0.10512228  0.44606043  0.12246413     0.10500
H79         H  0.20599194  0.50096664  0.18398067     0.08000
H80         H  0.16106002  0.05641631  0.11387257     0.07900
C81         C  0.99045280  0.13447971  0.11039974     0.04900
C82         C  0.02524686  0.16402302  0.12107216    -0.11300
C83         C  0.02690048  0.18895408  0.14772136     0.02400
C84         C  0.99367832  0.18399228  0.16403535    -0.09800
C85         C  0.47955126  0.14726358  0.16283504     0.04900
C86         C  0.48075518  0.12055057  0.14074823    -0.09200
H87         H  0.05106631  0.16815234  0.10867027     0.10500
H88         H  0.99542196  0.20183113  0.18643828     0.08000
H89         H  0.45479036  0.09590555  0.13501440     0.07900
C90         C  0.49575317  0.13914000  0.40224459     0.04900
C91         C  0.46467798  0.14344687  0.39370724    -0.11300
C92         C  0.46886758  0.17241745  0.37091456     0.02400
C93         C  0.50406088  0.19700959  0.35673024    -0.09800
C94         C  0.03229879  0.19798353  0.36042498     0.04900
C95         C  0.03592448  0.17656261  0.38783239    -0.09200
H96         H  0.43719152  0.12414185  0.40450219     0.10500
H97         H  0.50609246  0.21762204  0.33733118     0.08000
H98         H  0.06356039  0.18192142  0.39574484     0.07900
O99         O  0.44339468  0.48358228  0.44446561    -0.80000
C100        C  0.06867575  0.01230603  0.04094809     0.99300
O101        O  0.03259407  0.46017618  0.03120213    -0.69100
O102        O  0.46029580  0.44027447  0.05217622    -0.72700
Al103      Al  0.01309977  0.46479888  0.49266719     1.49000
C104        C  0.42848751  0.43747306  0.05544852     0.94600
O105        O  0.46411262  0.03995484  0.02764729    -0.79000
O106        O  0.02406608  0.07298343  0.47211164    -0.72500
Al107      Al  0.44695892  0.49822431  0.00435914     1.90100
O108        O  0.03785057  0.07075816  0.03541367    -0.71600
O109        O  0.05701310  0.03650636  0.45078308    -0.71400
O110        O  0.07495890  0.03757862  0.01811891    -0.77100
O111        O  0.04525608  0.48246670  0.44996435    -0.75300
O112        O  0.99929417  0.00331663  0.49756885    -1.11400
O113        O  0.45676882  0.44008583  0.45364142    -0.70600
C114        C  0.43900365  0.45260668  0.43633349     1.00100
C115        C  0.00982591  0.07325501  0.04517785     0.96500
Al116      Al  0.04292237  0.04454119  0.49794249     1.55600
O117        O  0.41942871  0.45584828  0.03469602    -0.75300
C118        C  0.07619589  0.51194918  0.45029035     1.00700
C119        C  0.50916504  0.07110691  0.46489881     0.95500
O120        O  0.47667240  0.05133551  0.47811259    -0.80600
C121        C  0.48972111  0.10825587  0.42732436    -0.14700
C122        C  0.51662815  0.10084192  0.43821843    -0.29800
H123        H  0.03478645  0.13562699  0.44728017     0.14400
H124        H  0.54516221  0.11712386  0.42842234     0.14900
C125        C  0.98694394  0.10738786  0.08217971    -0.14700
C126        C  0.01469466  0.10071733  0.07307882    -0.29800
H127        H  0.95982474  0.09132064  0.06925780     0.14400
H128        H  0.46242087  0.07783026  0.08064683     0.14900
C129        C  0.09774046  0.99246391  0.08975565    -0.14700
C130        C  0.09951691  0.01804351  0.06609708    -0.29800
H131        H  0.07223773  0.96611986  0.09069415     0.14400
H132        H  0.07299867  0.45359691  0.08055992     0.14900
C133        C  0.10797664  0.51785926  0.42629523    -0.14700
C134        C  0.11027951  0.49104972  0.40825758    -0.29800
H135        H  0.09735754  0.03777612  0.39490113     0.14400
H136        H  0.08685321  0.46336139  0.41021767     0.14900
C137        C  0.40271651  0.39487182  0.40151202    -0.14700
C138        C  0.41114697  0.42978473  0.40780487    -0.29800
H139        H  0.41904101  0.38472229  0.41566719     0.14400
H140        H  0.39614998  0.44124067  0.39351713     0.14900
C141        C  0.40168511  0.38507957  0.10073979    -0.14700
C142        C  0.40010135  0.41223117  0.08236002    -0.29800
H143        H  0.42578960  0.38141731  0.09655703     0.14400
H144        H  0.37499181  0.41442715  0.08407928     0.14900
C145        C  0.15023605  0.43423616  0.16598904    -0.14700
C146        C  0.17860786  0.42841299  0.17481561    -0.29800
H147        H  0.12158534  0.41330248  0.17199139     0.14400
H148        H  0.20713908  0.44837933  0.16715945     0.14900
C149        C  0.18339571  0.44079496  0.34157171    -0.14700
C150        C  0.15382051  0.41190987  0.32683323    -0.29800
H151        H  0.21119952  0.44542077  0.33479112     0.14400
H152        H  0.12585060  0.40739508  0.33215962     0.14900
C153        C  0.24706007  0.32229176  0.32316918    -0.14700
C154        C  0.28101561  0.35039916  0.33174707    -0.29800
H155        H  0.24071895  0.29456011  0.32936710     0.14400
H156        H  0.28712294  0.37819702  0.32620959     0.14900
C157        C  0.28231771  0.34621045  0.17279817    -0.14700
C158        C  0.24592503  0.32090307  0.17582601    -0.29800
H159        H  0.29249543  0.37303426  0.18493888     0.14400
H160        H  0.23554356  0.29472120  0.16218492     0.14900
C161        C  0.06702193  0.25293168  0.32175820    -0.14700
C162        C  0.06615242  0.22497156  0.34017642    -0.29800
H163        H  0.04413765  0.25864339  0.32451694     0.14400
H164        H  0.08986127  0.22034301  0.33840631     0.14900
C165        C  0.06939472  0.25147217  0.16955795    -0.14700
C166        C  0.06332434  0.21771468  0.16200888    -0.29800
H167        H  0.04949037  0.25956112  0.16014707     0.14400
H168        H  0.08402875  0.20999631  0.16944666     0.14900
C169        C  0.43701482  0.17613076  0.35719961    -0.14700
C170        C  0.40877174  0.14836173  0.33962400    -0.29800
H171        H  0.44174438  0.20361708  0.35250984     0.14400
H172        H  0.40597821  0.12135839  0.34162697     0.14900
C173        C  0.43806403  0.16874061  0.18907478    -0.14700
C174        C  0.44314493  0.14100651  0.17819443    -0.29800
H175        H  0.45999523  0.19676639  0.18466847     0.14400
H176        H  0.42067077  0.11305824  0.18206805     0.14900
C177        C  0.32919128  0.25933092  0.16053381    -0.14700
C178        C  0.35708919  0.25530740  0.17444513    -0.29800
H179        H  0.30063853  0.23743144  0.16505118     0.14400
H180        H  0.38577081  0.27732305  0.17148400     0.14900
C181        C  0.35028634  0.27934147  0.32893303    -0.14700
C182        C  0.32163018  0.24628593  0.31951263    -0.29800
H183        H  0.37875793  0.28495877  0.32423152     0.14400
H184        H  0.29308801  0.23975748  0.32544268     0.14900
C185        C  0.24348637  0.06831698  0.31696433    -0.14700
C186        C  0.20866767  0.06224782  0.32355156    -0.29800
H187        H  0.25147255  0.04912304  0.32800141     0.14400
H188        H  0.20051102  0.08189950  0.31447076     0.14900
C189        C  0.22002049  0.07009644  0.15766220    -0.14700
C190        C  0.25465748  0.07622871  0.16549975    -0.29800
H191        H  0.21203962  0.09020950  0.16546161     0.14400
H192        H  0.26241890  0.05613162  0.15700687     0.14900
O193        O  0.35447971  0.22320055  0.70855360    -0.80000
C194        C  0.27642183  0.10487895  0.80935827     0.99300
O195        O  0.26205637  0.11852063  0.78821339    -0.69100
O196        O  0.29137654  0.18892340  0.79574211    -0.72700
Al197      Al  0.28343236  0.15902211  0.75409591     1.49000
C198        C  0.31877636  0.22008377  0.80158196     0.94600
O199        O  0.39061707  0.20334563  0.79680163    -0.79000
O200        O  0.36311013  0.13702582  0.71337526    -0.72500
Al201      Al  0.36942245  0.20975160  0.75277643     1.90100
O202        O  0.37997385  0.14787917  0.78729292    -0.71600
O203        O  0.29305805  0.09423358  0.73034715    -0.71400
O204        O  0.30916061  0.11078862  0.80381210    -0.77100
O205        O  0.26967874  0.12836466  0.71212259    -0.75300
O206        O  0.32958423  0.16505772  0.75502421    -1.11400
O207        O  0.29456585  0.19818787  0.72015917    -0.70600
C208        C  0.32313906  0.22001836  0.70164120     1.00100
C209        C  0.39663701  0.17760288  0.80443937     0.96500
Al210      Al  0.33575479  0.12593240  0.75842230     1.55600
O211        O  0.34883732  0.23193101  0.78332735    -0.75300
C212        C  0.27176909  0.09964399  0.70962042     1.00700
C213        C  0.39016772  0.16762781  0.70410613     0.95500
O214        O  0.39752785  0.19633916  0.72139911    -0.80600
O215        O  0.22918350  0.35876794  0.79381750    -0.80000
C216        C  0.10604054  0.28063282  0.69471195     0.99300
O217        O  0.12364500  0.26906052  0.71357001    -0.69100
O218        O  0.19639988  0.30014171  0.70480577    -0.72700
Al219      Al  0.16462809  0.29077785  0.74686301     1.49000
C220        C  0.22891041  0.32663752  0.69949608     0.94600
O221        O  0.21254701  0.39732220  0.70580132    -0.79000
O222        O  0.14311587  0.37354179  0.78552549    -0.72500
Al223      Al  0.21724408  0.37497876  0.74936440     1.90100
O224        O  0.15362311  0.38275415  0.71029628    -0.71600
O225        O  0.10017087  0.30352482  0.77550476    -0.71400
O226        O  0.11102461  0.31229815  0.70009001    -0.77100
O227        O  0.13197911  0.27578460  0.78878847    -0.75300
O228        O  0.17079715  0.33611602  0.74648430    -1.11400
O229        O  0.20370568  0.30078321  0.78047916    -0.70600
C230        C  0.22530873  0.32767692  0.79988179     1.00100
C231        C  0.18559459  0.40128545  0.69578094     0.96500
Al232      Al  0.13076542  0.34240933  0.74310195     1.55600
O233        O  0.24097910  0.35522619  0.71866087    -0.75300
C234        C  0.10435813  0.28055017  0.79416785     1.00700
C235        C  0.17442570  0.39985622  0.79440969     0.95500
O236        O  0.20401193  0.40345587  0.78004702    -0.80600
C237        C  0.37229264  0.36112032  0.60592871     0.04900
C238        C  0.34384185  0.36758054  0.62014570    -0.11300
C239        C  0.31617749  0.34237733  0.64463790     0.02400
C240        C  0.31769917  0.31127984  0.65569997    -0.09800
C241        C  0.34567750  0.30433317  0.64261268     0.04900
C242        C  0.37295382  0.32945938  0.61787547    -0.09200
H243        H  0.34332796  0.39229519  0.61316499     0.10500
H244        H  0.29853379  0.29388799  0.67710814     0.08000
H245        H  0.39512753  0.32459025  0.60833174     0.07900
C246        C  0.36286704  0.35767494  0.89599293     0.04900
C247        C  0.33406437  0.36401444  0.88338990    -0.11300
C248        C  0.30814726  0.34069903  0.85732281     0.02400
C249        C  0.31153040  0.31134259  0.84368993    -0.09800
C250        C  0.33945932  0.30442341  0.85642293     0.04900
C251        C  0.36515317  0.32770501  0.88238831    -0.09200
H252        H  0.33130838  0.38660222  0.89390882     0.10500
H253        H  0.29374719  0.29495948  0.82133401     0.08000
H254        H  0.38735878  0.32282254  0.89153892     0.07900
C255        C  0.13238557  0.99151328  0.89206090     0.04900
C256        C  0.15980240  0.02693885  0.88062833    -0.11900
C257        C  0.19183519  0.03250603  0.86129827     0.02400
C258        C  0.19647408  0.00252605  0.85312641    -0.09800
C259        C  0.15581720  0.46876814  0.84729218     0.04900
C260        C  0.13172991  0.47039164  0.87428414    -0.09200
H261        H  0.15689031  0.05047122  0.88711721     0.10500
H262        H  0.22004480  0.00634395  0.83621578     0.08000
H263        H  0.10943532  0.44513646  0.88575065     0.07900
C264        C  0.14240019  0.49656078  0.60051984     0.04900
C265        C  0.14228119  0.46504186  0.61287013    -0.11300
C266        C  0.16887284  0.46729287  0.63806204     0.02400
C267        C  0.19652258  0.50163736  0.65035766    -0.09800
C268        C  0.18888655  0.03597544  0.65025779     0.04900
C269        C  0.16709124  0.03823582  0.62196418    -0.09200
H270        H  0.12044046  0.43844559  0.60392416     0.10500
H271        H  0.21540358  0.50305378  0.67188298     0.08000
H272        H  0.17355943  0.06490825  0.61145893     0.07900
C273        C  0.99697972  0.13635055  0.60995792     0.04900
C274        C  0.03221055  0.16510540  0.62137742    -0.11300
C275        C  0.03433586  0.19297303  0.64482640     0.02400
C276        C  0.00097505  0.19077324  0.65761362    -0.09800
C277        C  0.46303318  0.15726574  0.65205685     0.04900
C278        C  0.46937373  0.13297818  0.63127375    -0.09200
H279        H  0.05773164  0.16623829  0.61174185     0.10500
H280        H  0.00241372  0.21018997  0.67804103     0.08000
H281        H  0.44540844  0.10699944  0.62461850     0.07900
C282        C  0.50598828  0.14629934  0.89616898     0.04900
C283        C  0.47071347  0.14042965  0.88443883    -0.11300
C284        C  0.46824759  0.16468014  0.85928462     0.02400
C285        C  0.50114686  0.19444635  0.84560858    -0.09800
C286        C  0.03551745  0.19876804  0.85222627     0.04900
C287        C  0.03646697  0.17351604  0.87664623    -0.09200
H288        H  0.44519774  0.11724781  0.89471508     0.10500
H289        H  0.49939084  0.21120979  0.82374166     0.08000
H290        H  0.06330075  0.17694665  0.88494251     0.07900
O291        O  0.43049950  0.47097560  0.96077133    -0.80000
C292        C  0.05801082  0.99282648  0.53970230     0.99300
O293        O  0.05547646  0.48291564  0.52566756    -0.69100
O294        O  0.46119188  0.43764225  0.52924985    -0.72700
Al295      Al  0.99157065  0.45073129  0.00005395     1.49000
C296        C  0.43196366  0.43981795  0.53497253     0.94600
O297        O  0.46092974  0.02996203  0.55159691    -0.79000
O298        O  0.02035128  0.07238647  0.96229860    -0.72500
Al299      Al  0.45931928  0.50788129  0.49127033     1.90100
O300        O  0.03494218  0.05858436  0.54545866    -0.71600
O301        O  0.05340562  0.03420717  0.94530536    -0.71400
O302        O  0.06963375  0.02366861  0.52387336    -0.77100
O303        O  0.02136983  0.46067806  0.95680920    -0.75300
O304        O  0.00124410  0.00805131  0.99879315    -1.11400
O305        O  0.44457375  0.42858761  0.97645472    -0.70600
C306        C  0.42702483  0.43984988  0.95625231     1.00100
C307        C  0.00889784  0.06500742  0.55260987     0.96500
Al308      Al  0.04304689  0.05013719  0.99083538     1.55600
O309        O  0.42733736  0.46379984  0.51842234    -0.75300
C310        C  0.05452666  0.48633182  0.95266111     1.00700
C311        C  0.48782285  0.05966926  0.95002719     0.95500
O312        O  0.45973777  0.02828223  0.95329206    -0.80600
C313        C  0.50999622  0.12096077  0.92212124    -0.14700
C314        C  0.48520260  0.08510490  0.92361879    -0.29800
H315        H  0.03383992  0.12919408  0.93010001     0.14400
H316        H  0.46118755  0.07372536  0.90542168     0.14900
C317        C  0.99194893  0.10702867  0.58369126    -0.14700
C318        C  0.01549007  0.09377060  0.58005514    -0.29800
H319        H  0.96644420  0.09463631  0.56750442     0.14400
H320        H  0.46144891  0.06848519  0.60750504     0.14900
C321        C  0.11462920  0.01201987  0.57791844    -0.14700
C322        C  0.08033299  0.98641982  0.56768402    -0.29800
H323        H  0.12659549  0.03887311  0.56495600     0.14400
H324        H  0.10659148  0.53540482  0.59533730     0.14900
C325        C  0.07787951  0.48233649  0.92354983    -0.14700
C326        C  0.11345291  0.50801724  0.91633625    -0.29800
H327        H  0.09621317  0.03102485  0.89461411     0.14400
H328        H  0.12533027  0.53346475  0.93166056     0.14900
C329        C  0.39084788  0.38141113  0.92356670    -0.14700
C330        C  0.40079413  0.41662155  0.92771289    -0.29800
H331        H  0.40430144  0.36976557  0.94030949     0.14400
H332        H  0.38879739  0.42906736  0.91013218     0.14900
C333        C  0.40281826  0.38722126  0.58007698    -0.14700
C334        C  0.40188746  0.41439283  0.56095616    -0.29800
H335        H  0.42677013  0.38329455  0.57594927     0.14400
H336        H  0.37777010  0.41815568  0.56349357     0.14900
C337        C  0.16372363  0.43343096  0.65556502    -0.14700
C338        C  0.19224651  0.43010766  0.66884644    -0.29800
H339        H  0.13517563  0.41146772  0.65994038     0.14400
H340        H  0.22094684  0.45081537  0.66278633     0.14900
C341        C  0.14917972  0.43314353  0.83188335    -0.14700
C342        C  0.17791603  0.42883506  0.81997657    -0.29800
H343        H  0.12058326  0.41156942  0.82767836     0.14400
H344        H  0.20628475  0.45006882  0.82591778     0.14900
C345        C  0.24745204  0.32185320  0.82812302    -0.14700
C346        C  0.27993364  0.34884912  0.84117437    -0.29800
H347        H  0.23944224  0.29360714  0.83412387     0.14400
H348        H  0.28768203  0.37721312  0.83636740     0.14900
C349        C  0.28806344  0.35001236  0.66266687    -0.14700
C350        C  0.25370054  0.32264273  0.67231429    -0.29800
H351        H  0.29675445  0.37789198  0.67075679     0.14400
H352        H  0.24438700  0.29527215  0.66203836     0.14900
C353        C  0.07466485  0.25795495  0.82080378    -0.14700
C354        C  0.07091985  0.22689275  0.83495420    -0.29800
H355        H  0.05298955  0.26510085  0.82547375     0.14400
H356        H  0.09333038  0.22054933  0.83131938     0.14900
C357        C  0.07679314  0.25580876  0.66848098    -0.14700
C358        C  0.07071094  0.22193919  0.66007154    -0.29800
H359        H  0.05715211  0.26417093  0.65895607     0.14400
H360        H  0.09132976  0.21415528  0.66762762     0.14900
C361        C  0.43194270  0.15662216  0.84307927    -0.14700
C362        C  0.42568223  0.18359485  0.83156396    -0.29800
H363        H  0.41171711  0.12831988  0.83725392     0.14400
H364        H  0.44472814  0.21164183  0.83947682     0.14900
C365        C  0.41531670  0.17105080  0.67383222    -0.14700
C366        C  0.42573017  0.14597594  0.66803520    -0.29800
H367        H  0.43129983  0.19802621  0.66127265     0.14400
H368        H  0.40970165  0.11872403  0.67997115     0.14900
C369        C  0.34922412  0.27365094  0.65900260    -0.14700
C370        C  0.31953651  0.24368427  0.67361217    -0.29800
H371        H  0.37718702  0.27768756  0.66272011     0.14400
H372        H  0.29144401  0.23874656  0.66856426     0.14900
C373        C  0.34423608  0.27533017  0.83924582    -0.14700
C374        C  0.31468947  0.24396569  0.82829334    -0.29800
H375        H  0.37248392  0.28094997  0.83304825     0.14400
H376        H  0.28655664  0.23722246  0.83662911     0.14900
C377        C  0.25398721  0.07881930  0.83873622    -0.14700
C378        C  0.21785769  0.06857279  0.84469802    -0.29800
H379        H  0.26607561  0.06401748  0.85224866     0.14400
H380        H  0.20607329  0.08440810  0.83292767     0.14900
C381        C  0.21853436  0.06977423  0.66721791    -0.14700
C382        C  0.24786427  0.07055993  0.68410041    -0.29800
H383        H  0.21482697  0.09358149  0.66795139     0.14400
H384        H  0.25256641  0.04742692  0.68207534     0.14900
O385        O  0.35712804  0.72556883  0.20168184    -0.80000
C386        C  0.28989662  0.60956677  0.30669529     0.99300
O387        O  0.27493238  0.62522265  0.28992755    -0.69100
O388        O  0.30331720  0.69578267  0.29536047    -0.72700
Al389      Al  0.29171033  0.66354024  0.25449313     1.49000
C390        C  0.32981333  0.72813746  0.29728775     0.94600
O391        O  0.40133182  0.71241372  0.28772402    -0.79000
O392        O  0.37355590  0.64547754  0.20497184    -0.72500
Al393      Al  0.37693349  0.71632913  0.24496330     1.90100
O394        O  0.39086362  0.65657798  0.27910864    -0.71600
O395        O  0.30399439  0.60093110  0.22321696    -0.71400
O396        O  0.32136852  0.61441362  0.29678244    -0.77100
O397        O  0.27318050  0.63033734  0.21448683    -0.75300
O398        O  0.33834469  0.67078343  0.25009940    -1.11400
O399        O  0.29841021  0.70011484  0.21963824    -0.70600
C400        C  0.32452273  0.72053807  0.19778399     1.00100
C401        C  0.40752798  0.68676256  0.29561216     0.96500
Al402      Al  0.34667274  0.63281435  0.25091200     1.55600
O403        O  0.35753509  0.73948320  0.27573386    -0.75300
C404        C  0.27815272  0.60370952  0.20790561     1.00700
C405        C  0.40049938  0.67629946  0.19619790     0.95500
O406        O  0.40583575  0.70452490  0.21296450    -0.80600
O407        O  0.23138954  0.85898974  0.28855156    -0.80000
C408        C  0.10194250  0.77750069  0.20085708     0.99300
O409        O  0.11984812  0.76568498  0.21915336    -0.69100
O410        O  0.19122958  0.79479017  0.20540776    -0.72700
Al411      Al  0.16292385  0.78748628  0.24954435     1.49000
C412        C  0.22267007  0.82124785  0.19656756     0.94600
O413        O  0.20426847  0.89146046  0.20228265    -0.79000
O414        O  0.14380977  0.86708349  0.29202801    -0.72500
Al415      Al  0.21439826  0.87201667  0.24555326     1.90100
O416        O  0.14799242  0.88019169  0.21740740    -0.71600
O417        O  0.09865112  0.79752925  0.28100470    -0.71400
O418        O  0.10709833  0.80924708  0.20595681    -0.77100
O419        O  0.13324061  0.77296977  0.29402412    -0.75300
O420        O  0.16850119  0.83247220  0.24801791    -1.11400
O421        O  0.20479396  0.79988171  0.28031185    -0.70600
C422        C  0.22821143  0.82849966  0.29651474     1.00100
C423        C  0.17753004  0.89762403  0.19835518     0.96500
Al424      Al  0.12807429  0.83799659  0.24898139     1.55600
O425        O  0.23569582  0.85128210  0.21324625    -0.75300
C426        C  0.10429058  0.77537553  0.29959902     1.00700
C427        C  0.17503463  0.89545187  0.29629688     0.95500
O428        O  0.20312359  0.90122002  0.27711943    -0.80600
C429        C  0.35989354  0.85219715  0.09601571     0.04900
C430        C  0.33168955  0.85858861  0.11068818    -0.11300
C431        C  0.30593433  0.83446984  0.13706392     0.02400
C432        C  0.30917023  0.80454115  0.14915558    -0.09800
C433        C  0.33692114  0.79781287  0.13471027     0.04900
C434        C  0.36185287  0.82149976  0.10786278    -0.09200
H435        H  0.32959294  0.88206057  0.10171884     0.10500
H436        H  0.29175721  0.78814420  0.17206515     0.08000
H437        H  0.38393391  0.81691326  0.09735542     0.07900
C438        C  0.37548672  0.87284264  0.38200404     0.04900
C439        C  0.34439899  0.87615834  0.37101865    -0.11300
C440        C  0.31711821  0.84995104  0.34776080     0.02400
C441        C  0.32141485  0.82079154  0.33507849    -0.09800
C442        C  0.35174763  0.81684395  0.34584153     0.04900
C443        C  0.37893437  0.84313737  0.36891546    -0.09200
H444        H  0.34075009  0.89843515  0.38083809     0.10500
H445        H  0.30220607  0.80204768  0.31487826     0.08000
H446        H  0.40276390  0.84034044  0.37683596     0.07900
C447        C  0.14485174  0.49702414  0.38814933     0.04900
C448        C  0.17383394  0.53224625  0.37802393    -0.11900
C449        C  0.20643684  0.53710571  0.36034162     0.02400
C450        C  0.20974681  0.50643127  0.35172635    -0.09800
C451        C  0.15204504  0.96088794  0.34572296     0.04900
C452        C  0.12513454  0.95975723  0.37013328    -0.09200
H453        H  0.17104275  0.55613131  0.38252490     0.10500
H454        H  0.23358638  0.50958876  0.33578270     0.08000
H455        H  0.10383576  0.93361020  0.38117999     0.07900
C456        C  0.12994630  0.99701232  0.11271780     0.04900
C457        C  0.12889766  0.96526696  0.12642871    -0.11300
C458        C  0.15801922  0.96709815  0.14789466     0.02400
C459        C  0.18868049  0.00141327  0.15610540    -0.09800
C460        C  0.19063561  0.53647622  0.15515091     0.04900
C461        C  0.16347252  0.53769963  0.13296798    -0.09200
H462        H  0.10502841  0.93877092  0.12053265     0.10500
H463        H  0.20985449  0.00280049  0.17474653     0.08000
H464        H  0.16612870  0.56396041  0.12606186     0.07900
C465        C  0.00971237  0.63567521  0.11073269     0.04900
C466        C  0.04090319  0.66716406  0.12387884    -0.11300
C467        C  0.03671183  0.69110365  0.14758938     0.02400
C468        C  0.00075266  0.68369423  0.15803418    -0.09800
C469        C  0.47102190  0.66135001  0.14176298     0.04900
C470        C  0.47349333  0.63666293  0.11758140    -0.09200
H471        H  0.06877162  0.67268655  0.11627098     0.10500
H472        H  0.99784404  0.70108070  0.17829279     0.08000
H473        H  0.44795423  0.61325838  0.10826319     0.07900
C474        C  0.50436618  0.64359432  0.39128253     0.04900
C475        C  0.47173062  0.64302239  0.37914514    -0.11300
C476        C  0.47346695  0.66884705  0.35365342     0.02400
C477        C  0.50820852  0.69576752  0.34025267    -0.09800
C478        C  0.03222284  0.68986245  0.35269797     0.04900
C479        C  0.02933500  0.66270876  0.37762327    -0.09200
H480        H  0.44459287  0.62161181  0.38873262     0.10500
H481        H  0.50905528  0.71359521  0.31811371     0.08000
H482        H  0.05471522  0.66444424  0.38813740     0.07900
O483        O  0.43797455  0.98280457  0.45787971    -0.80000
C484        C  0.05320485  0.48635106  0.05198660     0.99300
O485        O  0.03734011  0.98310096  0.04147843    -0.69100
O486        O  0.44635707  0.92853095  0.02000597    -0.72700
Al487      Al  0.99686191  0.96038328  0.49077985     1.49000
C488        C  0.42851885  0.93851649  0.04159121     0.94600
O489        O  0.46017515  0.52567203  0.04805610    -0.79000
O490        O  0.03962483  0.56530422  0.45593071    -0.72500
Al491      Al  0.44789195  0.99908002  0.99618516     1.90100
O492        O  0.02797911  0.56216739  0.03693124    -0.71600
O493        O  0.08142606  0.53720313  0.47246221    -0.71400
O494        O  0.05440431  0.51672531  0.04897472    -0.77100
O495        O  0.03892915  0.97835422  0.45733279    -0.75300
O496        O  0.00819914  0.50443820  0.49559084    -1.11400
O497        O  0.45066885  0.93884793  0.46689833    -0.70600
C498        C  0.43427131  0.95234928  0.44890822     1.00100
C499        C  0.99704931  0.55330080  0.05315394     0.96500
Al500      Al  0.04839536  0.54802603  0.50056259     1.55600
O501        O  0.43236764  0.96998898  0.03918272    -0.75300
C502        C  0.05850537  0.00873541  0.44101808     1.00700
C503        C  0.51635051  0.57309069  0.45054768     0.95500
O504        O  0.48368136  0.55332861  0.46374527    -0.80600
C505        C  0.49932755  0.61438216  0.41804241    -0.14700
C506        C  0.52436402  0.60330702  0.42419684    -0.29800
H507        H  0.96260237  0.59056983  0.43129584     0.14400
H508        H  0.55128715  0.61659323  0.41008504     0.14900
C509        C  0.01658768  0.61196101  0.08498931    -0.14700
C510        C  0.99317930  0.57600955  0.08206128    -0.29800
H511        H  0.04186314  0.62456687  0.06798229     0.14400
H512        H  0.46378982  0.56995331  0.09813865     0.14900
C513        C  0.10490411  0.50890384  0.09668750    -0.14700
C514        C  0.07704504  0.48095703  0.07857880    -0.29800
H515        H  0.10871730  0.53613656  0.09265452     0.14400
H516        H  0.12524954  0.04393664  0.06342180     0.14900
C517        C  0.08509220  0.01289773  0.41144071    -0.14700
C518        C  0.09593735  0.98800109  0.40687870    -0.29800
H519        H  0.13177133  0.54522012  0.42678840     0.14400
H520        H  0.08270847  0.96323681  0.42375679     0.14900
C521        C  0.40372012  0.89810693  0.40888219    -0.14700
C522        C  0.40906868  0.93135557  0.41820354    -0.29800
H523        H  0.42061905  0.88823047  0.42236512     0.14400
H524        H  0.39380597  0.94281494  0.40445793     0.14900
C525        C  0.38841344  0.87732711  0.06896480    -0.14700
C526        C  0.40133493  0.91339901  0.06914889    -0.29800
H527        H  0.40021292  0.86603246  0.04945504     0.14400
H528        H  0.39059289  0.92505851  0.08935995     0.14900
C529        C  0.15335029  0.93317803  0.16566959    -0.14700
C530        C  0.18210385  0.92762713  0.17348922    -0.29800
H531        H  0.12517745  0.91254707  0.17374546     0.14400
H532        H  0.21008267  0.94694800  0.16364341     0.14900
C533        C  0.14888330  0.92631250  0.33280782    -0.14700
C534        C  0.17880703  0.92433507  0.32127686    -0.29800
H535        H  0.12099930  0.90301736  0.32959645     0.14400
H536        H  0.20674015  0.94722332  0.32539381     0.14900
C537        C  0.25351932  0.82566945  0.32314714    -0.14700
C538        C  0.28601958  0.85465878  0.33347548    -0.29800
H539        H  0.24760479  0.79823758  0.33030312     0.14400
H540        H  0.29146546  0.88219938  0.32766556     0.14900
C541        C  0.27863121  0.84262464  0.15578550    -0.14700
C542        C  0.24535877  0.81563439  0.16827310    -0.29800
H543        H  0.28730711  0.87091140  0.16207641     0.14400
H544        H  0.23587218  0.78764713  0.15994003     0.14900
C545        C  0.07474502  0.75121164  0.32618567    -0.14700
C546        C  0.06928625  0.71840083  0.33768619    -0.29800
H547        H  0.05346743  0.75860765  0.33226476     0.14400
H548        H  0.09078353  0.71104248  0.33277365     0.14900
C549        C  0.07273002  0.75274134  0.17522680    -0.14700
C550        C  0.07017565  0.72086724  0.16525458    -0.29800
H551        H  0.05156253  0.75945877  0.16672651     0.14400
H552        H  0.09277699  0.71553140  0.17186911     0.14900
C553        C  0.43887828  0.66428768  0.33672166    -0.14700
C554        C  0.43632101  0.69261310  0.32274626    -0.29800
H555        H  0.41617071  0.63655122  0.33269627     0.14400
H556        H  0.45745224  0.72053298  0.32881809     0.14900
C557        C  0.42831828  0.68061238  0.16796286    -0.14700
C558        C  0.43442918  0.65336627  0.15782188    -0.29800
H559        H  0.44828643  0.70847559  0.15972187     0.14400
H560        H  0.41421149  0.62525974  0.16494503     0.14900
C561        C  0.34375626  0.76972064  0.15173977    -0.14700
C562        C  0.31647961  0.74045242  0.16929706    -0.29800
H563        H  0.37250997  0.77544116  0.15343227     0.14400
H564        H  0.28753000  0.73377738  0.16652663     0.14900
C565        C  0.35661077  0.78716153  0.32969161    -0.14700
C566        C  0.32717466  0.75385879  0.32302570    -0.29800
H567        H  0.38449460  0.79367796  0.32066614     0.14400
H568        H  0.29973203  0.74655076  0.33416117     0.14900
C569        C  0.26894003  0.58250567  0.33594505    -0.14700
C570        C  0.23351339  0.57334593  0.34466184    -0.29800
H571        H  0.28089287  0.56635517  0.34641968     0.14400
H572        H  0.22251148  0.59081848  0.33567460     0.14900
C573        C  0.22030565  0.57064215  0.17176079    -0.14700
C574        C  0.25270148  0.57396382  0.18360093    -0.29800
H575        H  0.21439680  0.59279753  0.17624671     0.14400
H576        H  0.25961220  0.55269386  0.17792790     0.14900
O577        O  0.37180275  0.72683914  0.70227870    -0.80000
C578        C  0.27893005  0.60234551  0.79057680     0.99300
O579        O  0.26811267  0.62028014  0.77080654    -0.69100
O580        O  0.29911844  0.69108888  0.78162882    -0.72700
Al581      Al  0.29375441  0.66262276  0.73885962     1.49000
C582        C  0.32647207  0.72171214  0.78944557     0.94600
O583        O  0.39412473  0.69751620  0.79312888    -0.79000
O584        O  0.37429826  0.63997793  0.70204338    -0.72500
Al585      Al  0.37995192  0.70930553  0.74728025     1.90100
O586        O  0.38445085  0.64346583  0.77743733    -0.71600
O587        O  0.30269083  0.59769247  0.71207957    -0.71400
O588        O  0.31125256  0.60642812  0.78669581    -0.77100
O589        O  0.28073943  0.63330883  0.69518695    -0.75300
O590        O  0.33862824  0.66581562  0.74355796    -1.11400
O591        O  0.31116129  0.70475931  0.70629325    -0.70600
C592        C  0.34272875  0.72680047  0.69197885     1.00100
C593        C  0.40034413  0.67137014  0.79764831     0.96500
Al594      Al  0.34270876  0.62543104  0.74454734     1.55600
O595        O  0.35815536  0.73200653  0.77521681    -0.75300
C596        C  0.28224538  0.60433993  0.69147158     1.00700
C597        C  0.40380136  0.67028444  0.69824939     0.95500
O598        O  0.41081110  0.69674813  0.71916077    -0.80600
O599        O  0.21788303  0.85634653  0.79666541    -0.80000
C600        C  0.09737378  0.77701421  0.69646605     0.99300
O601        O  0.11487065  0.76558132  0.71572956    -0.69100
O602        O  0.18649776  0.80414823  0.70304440    -0.72700
Al603      Al  0.15720512  0.78909778  0.74668022     1.49000
C604        C  0.21805040  0.83231875  0.69911837     0.94600
O605        O  0.19313765  0.89668639  0.71452367    -0.79000
O606        O  0.12248513  0.85706117  0.79360805    -0.72500
Al607      Al  0.20165821  0.87324026  0.75521851     1.90100
O608        O  0.13313742  0.87675799  0.71983650    -0.71600
O609        O  0.08748090  0.78848844  0.77721785    -0.71400
O610        O  0.10060990  0.80774368  0.70252132    -0.77100
O611        O  0.12741274  0.76963686  0.79017645    -0.75300
O612        O  0.15800039  0.83184641  0.75036197    -1.11400
O613        O  0.19940009  0.80126538  0.77642055    -0.70600
C614        C  0.21961655  0.82731594  0.79731732     1.00100
C615        C  0.16457407  0.89844364  0.70562116     0.96500
Al616      Al  0.11482918  0.83244485  0.74845488     1.55600
O617        O  0.22852403  0.85945793  0.72051151    -0.75300
C618        C  0.09656670  0.76849795  0.79572720     1.00700
C619        C  0.15115527  0.88460462  0.80529239     0.95500
O620        O  0.18294547  0.89479457  0.79065278    -0.80600
C621        C  0.36222813  0.85876486  0.61583577     0.04900
C622        C  0.33739630  0.86920038  0.63167057    -0.11300
C623        C  0.30600511  0.84406648  0.65206639     0.02400
C624        C  0.30033039  0.80887578  0.65839809    -0.09800
C625        C  0.32563697  0.79846933  0.64531416     0.04900
C626        C  0.35654550  0.82344789  0.62357628    -0.09200
H627        H  0.34215938  0.89671629  0.62842425     0.10500
H628        H  0.27707833  0.79000552  0.67580009     0.08000
H629        H  0.37592366  0.81548096  0.61240873     0.07900
C630        C  0.37290096  0.86834209  0.86954254     0.04900
C631        C  0.34186046  0.87228969  0.85986936    -0.11300
C632        C  0.31192892  0.84496779  0.83998510     0.02400
C633        C  0.31381016  0.81394394  0.82865796    -0.09800
C634        C  0.34493650  0.81011841  0.83723124     0.04900
C635        C  0.37432399  0.83748958  0.85741077    -0.09200
H636        H  0.34088137  0.89670115  0.86708503     0.10500
H637        H  0.29240977  0.79404928  0.81087697     0.08000
H638        H  0.39848724  0.83466715  0.86379367     0.07900
C639        C  0.13718648  0.50453614  0.88687736     0.04900
C640        C  0.16663309  0.53683755  0.87158592    -0.11900
C641        C  0.19050395  0.53556813  0.84449606     0.02400
C642        C  0.18486422  0.50159145  0.83254425    -0.09800
C643        C  0.16932804  0.96709942  0.86290702     0.04900
C644        C  0.13744240  0.96161502  0.88312106    -0.09200
H645        H  0.17081270  0.56313524  0.88055045     0.10500
H646        H  0.20204447  0.50079092  0.81005600     0.08000
H647        H  0.11641273  0.93428831  0.89144114     0.07900
C648        C  0.13662196  0.00667296  0.60767704     0.04900
C649        C  0.12836115  0.97201654  0.62221582    -0.11300
C650        C  0.15050443  0.96944816  0.65051083     0.02400
C651        C  0.18004438  0.00166539  0.66467190    -0.09800
C652        C  0.19778581  0.53386885  0.63764500     0.04900
C653        C  0.17020091  0.53109500  0.61301391    -0.09200
H654        H  0.10541740  0.94708657  0.61158874     0.10500
H655        H  0.19499048  0.99997383  0.68851342     0.08000
H656        H  0.17066436  0.55571779  0.60345013     0.07900
C657        C  0.00536807  0.63494136  0.60796553     0.04900
C658        C  0.03736268  0.66665641  0.61957311    -0.11300
C659        C  0.03451782  0.69056329  0.64427173     0.02400
C660        C  0.99936891  0.68265071  0.65776578    -0.09800
C661        C  0.47764565  0.66075519  0.64481146     0.04900
C662        C  0.48220273  0.63532149  0.62405274    -0.09200
H663        H  0.06477708  0.67255067  0.60976832     0.10500
H664        H  0.99774650  0.69994473  0.67903157     0.08000
H665        H  0.45748657  0.60946983  0.61902531     0.07900
C666        C  0.51125755  0.63485124  0.87968156     0.04900
C667        C  0.47636888  0.62946944  0.86730112    -0.11300
C668        C  0.47408927  0.65621010  0.84593899     0.02400
C669        C  0.50704040  0.68806358  0.83569134    -0.09800
C670        C  0.03200254  0.68160349  0.85029183     0.04900
C671        C  0.03136070  0.65619527  0.87626632    -0.09200
H672        H  0.45081963  0.60433179  0.87334552     0.10500
H673        H  0.50526039  0.70714794  0.81679429     0.08000
H674        H  0.05753232  0.65921035  0.88600558     0.07900
O675        O  0.41989072  0.95826276  0.96547233    -0.80000
C676        C  0.06938832  0.50964143  0.54794698     0.99300
O677        O  0.02665813  0.96619509  0.53203316    -0.69100
O678        O  0.45436985  0.93545767  0.54245352    -0.72700
Al679      Al  0.00277771  0.96645394  0.00084281     1.49000
C680        C  0.42514377  0.93766496  0.54767935     0.94600
O681        O  0.46799188  0.53228764  0.53764802    -0.79000
O682        O  0.03912072  0.55695381  0.96132378    -0.72500
Al683      Al  0.45278295  0.00602187  0.50500563     1.90100
O684        O  0.02461687  0.56920377  0.52968999    -0.71600
O685        O  0.06758443  0.51427417  0.97342978    -0.71400
O686        O  0.06135933  0.53475920  0.54565162    -0.77100
O687        O  0.04307951  0.98077589  0.96532615    -0.75300
O688        O  0.99787388  0.49566916  0.00105893    -1.11400
O689        O  0.46063507  0.94379373  0.94421180    -0.70600
C690        C  0.42892177  0.94148068  0.94265194     1.00100
C691        C  0.99383314  0.55510874  0.54725709     0.96500
Al692      Al  0.04349611  0.53432806  0.00494779     1.55600
O693        O  0.42073717  0.96177421  0.53122918    -0.75300
C694        C  0.05853867  0.00718106  0.94256785     1.00700
C695        C  0.48941047  0.55778505  0.95182148     0.95500
O696        O  0.46255204  0.54074453  0.97413843    -0.80600
C697        C  0.51470397  0.60764145  0.90383932    -0.14700
C698        C  0.48613700  0.58237588  0.92450832    -0.29800
H699        H  0.96647450  0.58559797  0.93268234     0.14400
H700        H  0.45921661  0.58112481  0.92395787     0.14900
C701        C  0.01093557  0.61164544  0.58086646    -0.14700
C702        C  0.98663396  0.57617149  0.57548371    -0.29800
H703        H  0.03703129  0.62432689  0.56511844     0.14400
H704        H  0.46770272  0.57160640  0.59150270     0.14900
C705        C  0.11282802  0.49201767  0.57460407    -0.14700
C706        C  0.09731859  0.51341727  0.57534940    -0.29800
H707        H  0.10247043  0.46933760  0.55531133     0.14400
H708        H  0.06714309  0.95967831  0.58079125     0.14900
C709        C  0.08533980  0.00843086  0.91426632    -0.14700
C710        C  0.09933385  0.98544364  0.91479122    -0.29800
H711        H  0.06491644  0.45747798  0.90734254     0.14400
H712        H  0.08723985  0.96217146  0.93370877     0.14900
C713        C  0.40430390  0.89549303  0.89243901    -0.14700
C714        C  0.40050742  0.91835556  0.91552674    -0.29800
H715        H  0.43019054  0.89449778  0.89274490     0.14400
H716        H  0.37420063  0.91834853  0.91718111     0.14900
C717        C  0.39442954  0.88433731  0.59164602    -0.14700
C718        C  0.39467739  0.91219364  0.57282832    -0.29800
H719        H  0.41762322  0.87917630  0.58794091     0.14400
H720        H  0.37069826  0.91627585  0.57464419     0.14900
C721        C  0.14186533  0.93374739  0.66774790    -0.14700
C722        C  0.16962548  0.92819335  0.68005857    -0.29800
H723        H  0.11285143  0.91311337  0.67239040     0.14400
H724        H  0.19837464  0.94816510  0.67306686     0.14900
C725        C  0.17439704  0.93721127  0.84737382    -0.14700
C726        C  0.14584215  0.90641730  0.83428250    -0.29800
H727        H  0.20264775  0.94380272  0.83961939     0.14400
H728        H  0.11732013  0.89978234  0.84057939     0.14900
C729        C  0.24657730  0.82308976  0.82051618    -0.14700
C730        C  0.28082757  0.85098338  0.82784980    -0.29800
H731        H  0.24014881  0.79528679  0.82646638     0.14400
H732        H  0.28706386  0.87880806  0.82220270     0.14900
C733        C  0.28028280  0.85479774  0.66969931    -0.14700
C734        C  0.24342792  0.83098311  0.67108367    -0.29800
H735        H  0.29202361  0.88027736  0.68491726     0.14400
H736        H  0.23233715  0.80625533  0.65460037     0.14900
C737        C  0.06920051  0.74292423  0.82280665    -0.14700
C738        C  0.06744928  0.71155417  0.83421070    -0.29800
H739        H  0.04661538  0.74815538  0.83002027     0.14400
H740        H  0.09039442  0.70645596  0.82844963     0.14900
C741        C  0.07022927  0.75272131  0.66923491    -0.14700
C742        C  0.06857550  0.72115433  0.65982145    -0.29800
H743        H  0.04860522  0.75864663  0.66031616     0.14400
H744        H  0.09136402  0.71623297  0.66683824     0.14900
C745        C  0.43784302  0.64869653  0.82990699    -0.14700
C746        C  0.42941423  0.67538452  0.82402573    -0.29800
H747        H  0.41916035  0.62123531  0.82008824     0.14400
H748        H  0.44711491  0.70232475  0.83556931     0.14900
C749        C  0.43178471  0.67600817  0.67014191    -0.14700
C750        C  0.44096648  0.65047377  0.66194990    -0.29800
H751        H  0.44906761  0.70390562  0.66032979     0.14400
H752        H  0.42319283  0.62242240  0.67121707     0.14900
C753        C  0.31937231  0.76220200  0.65799969    -0.14700
C754        C  0.34738102  0.75569838  0.66547586    -0.29800
H755        H  0.29150157  0.74267759  0.66806532     0.14400
H756        H  0.37574883  0.77551518  0.65719155     0.14900
C757        C  0.34961193  0.78016059  0.82156297    -0.14700
C758        C  0.32085215  0.74705509  0.81320133    -0.29800
H759        H  0.37799924  0.78635100  0.81508982     0.14400
H760        H  0.29247663  0.73967574  0.82116831     0.14900
C761        C  0.25289905  0.57380638  0.81652420    -0.14700
C762        C  0.21936505  0.56955998  0.82611541    -0.29800
H763        H  0.26059560  0.55392821  0.82607401     0.14400
H764        H  0.21227730  0.59043925  0.81885217     0.14900
C765        C  0.22544931  0.56986938  0.65325480    -0.14700
C766        C  0.25918884  0.57610515  0.66444718    -0.29800
H767        H  0.21670042  0.58989455  0.65869555     0.14400
H768        H  0.26788827  0.55619768  0.65815842     0.14900
O769        O  0.85255644  0.22278674  0.21896712    -0.80000
C770        C  0.76674604  0.09817143  0.31045618     0.99300
O771        O  0.75507218  0.11573073  0.29166524    -0.69100
O772        O  0.78579926  0.18588651  0.30430905    -0.72700
Al773      Al  0.77869152  0.15797664  0.26060633     1.49000
C774        C  0.81318236  0.21695332  0.31074353     0.94600
O775        O  0.88308312  0.19782388  0.30774085    -0.79000
O776        O  0.86205008  0.13816935  0.21979591    -0.72500
Al777      Al  0.86499610  0.20720956  0.26325286     1.90100
O778        O  0.87220836  0.14251879  0.29568749    -0.71600
O779        O  0.78987424  0.09529262  0.22976675    -0.71400
O780        O  0.79917134  0.10290694  0.30532990    -0.77100
O781        O  0.76474257  0.12928284  0.21674056    -0.75300
O782        O  0.82458676  0.16272996  0.26211027    -1.11400
O783        O  0.79243377  0.19936536  0.22924669    -0.70600
C784        C  0.82196081  0.22143150  0.21214318     1.00100
C785        C  0.88898507  0.17172057  0.31399749     0.96500
Al786      Al  0.83019201  0.12318482  0.26263950     1.55600
O787        O  0.84343020  0.22858083  0.29304210    -0.75300
C788        C  0.76782924  0.10141628  0.21087795     1.00700
C789        C  0.89072156  0.16898189  0.21478170     0.95500
O790        O  0.89584932  0.19608776  0.23357173    -0.80600
O791        O  0.72826547  0.36259247  0.30527279    -0.80000
C792        C  0.61237862  0.27358016  0.20383525     0.99300
O793        O  0.62934652  0.26374948  0.22603669    -0.69100
O794        O  0.70176567  0.30297337  0.21718498    -0.72700
Al795      Al  0.66999554  0.29010618  0.25901782     1.49000
C796        C  0.73219387  0.33207723  0.21156902     0.94600
O797        O  0.70303789  0.39506547  0.21709857    -0.79000
O798        O  0.63013869  0.35608579  0.29549851    -0.72500
Al799      Al  0.71169777  0.37501698  0.26084153     1.90100
O800        O  0.64286819  0.37349878  0.22225355    -0.71600
O801        O  0.59728462  0.28768876  0.28100006    -0.71400
O802        O  0.61478383  0.30437772  0.20677052    -0.77100
O803        O  0.63815205  0.27291857  0.30164704    -0.75300
O804        O  0.66922526  0.33214316  0.25732370    -1.11400
O805        O  0.71041621  0.30577035  0.29205925    -0.70600
C806        C  0.72939204  0.33370855  0.31122960     1.00100
C807        C  0.67391618  0.39561198  0.20788692     0.96500
Al808      Al  0.62528208  0.33053506  0.25174217     1.55600
O809        O  0.74063272  0.36079651  0.22978517    -0.75300
C810        C  0.60685015  0.27137495  0.30412086     1.00700
C811        C  0.65767851  0.38517542  0.30624769     0.95500
O812        O  0.69005131  0.39662197  0.29240285    -0.80600
C813        C  0.87716586  0.36679595  0.12400836     0.04900
C814        C  0.84990425  0.37457403  0.13857430    -0.11300
C815        C  0.82224059  0.34996385  0.16309759     0.02400
C816        C  0.82269486  0.31825238  0.17403476    -0.09800
C817        C  0.84969559  0.31022980  0.16025805     0.04900
C818        C  0.87716558  0.33487577  0.13565042    -0.09200
H819        H  0.85012032  0.39962471  0.13136108     0.10500
H820        H  0.80297756  0.30074436  0.19507587     0.08000
H821        H  0.89846227  0.32904978  0.12535239     0.07900
C822        C  0.87393934  0.36271319  0.39430608     0.04900
C823        C  0.84704545  0.37197596  0.38206900    -0.11300
C824        C  0.81627327  0.34708265  0.36107379     0.02400
C825        C  0.81343605  0.31346537  0.35152087    -0.09800
C826        C  0.83986134  0.30406529  0.36358882     0.04900
C827        C  0.86971233  0.32861050  0.38527105    -0.09200
H828        H  0.84958064  0.39804736  0.38920328     0.10500
H829        H  0.79199509  0.29559983  0.33245783     0.08000
H830        H  0.89062074  0.32167192  0.39399018     0.07900
C831        C  0.61740336  0.98622453  0.38854179     0.04900
C832        C  0.64669500  0.02149894  0.37857624    -0.11900
C833        C  0.67661681  0.02569351  0.35620388     0.02400
C834        C  0.67637389  0.99462384  0.34238916    -0.09800
C835        C  0.67051935  0.46857449  0.35714022     0.04900
C836        C  0.63700673  0.46231449  0.37423846    -0.09200
H837        H  0.64622272  0.04581720  0.38721602     0.10500
H838        H  0.69753635  0.99822173  0.32223130     0.08000
H839        H  0.61651828  0.43503665  0.38327697     0.07900
C840        C  0.62292667  0.48847129  0.11449030     0.04900
C841        C  0.62240296  0.45710229  0.12886618    -0.11300
C842        C  0.65008038  0.45987980  0.15327049     0.02400
C843        C  0.67851672  0.49456975  0.16371154    -0.09800
C844        C  0.68539693  0.03760307  0.14893006     0.04900
C845        C  0.66065997  0.03913817  0.12324984    -0.09200
H846        H  0.60000567  0.43025600  0.12138555     0.10500
H847        H  0.69798876  0.49650239  0.18479869     0.08000
H848        H  0.66343036  0.06543136  0.11631305     0.07900
C849        C  0.51511522  0.12553075  0.12665216     0.04900
C850        C  0.54847284  0.15666398  0.13675493    -0.11300
C851        C  0.54767324  0.18333761  0.15907184     0.02400
C852        C  0.51331328  0.17845178  0.17209725    -0.09800
C853        C  0.95881045  0.15469394  0.15376803     0.04900
C854        C  0.95751601  0.13021098  0.12691126    -0.09200
H855        H  0.57509677  0.16039872  0.12689636     0.10500
H856        H  0.51337760  0.19805309  0.19146177     0.08000
H857        H  0.93071003  0.10732444  0.11927861     0.07900
C858        C  0.00433407  0.14681547  0.40335248     0.04900
C859        C  0.96830017  0.13911509  0.39216135    -0.11300
C860        C  0.96421493  0.16116958  0.36541294     0.02400
C861        C  0.99639016  0.19026190  0.34945702    -0.09800
C862        C  0.53538571  0.19314870  0.36409728     0.04900
C863        C  0.53105333  0.16403908  0.38663917    -0.09200
H864        H  0.94356765  0.11610363  0.40399010     0.10500
H865        H  0.99313824  0.20502122  0.32647119     0.08000
H866        H  0.55536177  0.16122864  0.39147537     0.07900
O867        O  0.95300809  0.47801607  0.44727661    -0.80000
C868        C  0.54975080  0.98972963  0.04060557     0.99300
O869        O  0.53338911  0.47284449  0.03737427    -0.69100
O870        O  0.96115273  0.43643034  0.04351279    -0.72700
Al871      Al  0.49638597  0.45904705  0.48880464     1.49000
C872        C  0.93120498  0.43760122  0.04672978     0.94600
O873        O  0.97819677  0.05300629  0.03095275    -0.79000
O874        O  0.53582499  0.06637327  0.47471681    -0.72500
Al875      Al  0.95800765  0.50149208  0.99828058     1.90100
O876        O  0.52007111  0.05235648  0.04438765    -0.71600
O877        O  0.56571764  0.02523810  0.48624730    -0.71400
O878        O  0.55981534  0.02082454  0.02633939    -0.77100
O879        O  0.53157681  0.47539164  0.44761779    -0.75300
O880        O  0.49343767  0.00111027  0.50803520    -1.11400
O881        O  0.97101306  0.43808204  0.45956657    -0.70600
C882        C  0.95131299  0.44797637  0.44114069     1.00100
C883        C  0.49132868  0.05529646  0.04920959     0.96500
Al884      Al  0.53823512  0.04022785  0.51677406     1.55600
O885        O  0.92473213  0.45778212  0.02555029    -0.75300
C886        C  0.56410036  0.50303020  0.44861751     1.00700
C887        C  0.99332682  0.06295467  0.45540300     0.95500
O888        O  0.96528304  0.03213724  0.46126104    -0.80600
C889        C  0.01037865  0.12326429  0.42953098    -0.14700
C890        C  0.98833061  0.08707669  0.42962454    -0.29800
H891        H  0.46151399  0.09103591  0.43801870     0.14400
H892        H  0.96449667  0.07450939  0.41119905     0.14900
C893        C  0.51723266  0.09929853  0.10072041    -0.14700
C894        C  0.48855874  0.07750759  0.07897872    -0.29800
H895        H  0.54393621  0.10027252  0.09695414     0.14400
H896        H  0.04170468  0.11540518  0.08633010     0.14900
C897        C  0.60717664  0.01138644  0.07925060    -0.14700
C898        C  0.57351976  0.98431430  0.06823784    -0.29800
H899        H  0.61679935  0.03863364  0.06807455     0.14400
H900        H  0.59825936  0.53539424  0.09251838     0.14900
C901        C  0.59440721  0.50934103  0.42226102    -0.14700
C902        C  0.59520192  0.48392232  0.40057794    -0.29800
H903        H  0.61263784  0.03199649  0.43776937     0.14400
H904        H  0.57159165  0.45628240  0.40118183     0.14900
C905        C  0.90651910  0.38745016  0.41715136    -0.14700
C906        C  0.92351314  0.42387191  0.41406481    -0.29800
H907        H  0.91678635  0.37520024  0.43718650     0.14400
H908        H  0.91363964  0.43638112  0.39398086     0.14900
C909        C  0.90647411  0.39142272  0.09712200    -0.14700
C910        C  0.90268936  0.41495608  0.07471814    -0.29800
H911        H  0.93124715  0.38863089  0.09424791     0.14400
H912        H  0.87744965  0.41699202  0.07571884     0.14900
C913        C  0.64681983  0.42651707  0.17109226    -0.14700
C914        C  0.67689593  0.42428082  0.18207150    -0.29800
H915        H  0.61891063  0.40406193  0.17705764     0.14400
H916        H  0.70479138  0.44571047  0.17433896     0.14900
C917        C  0.67766685  0.43904537  0.34521284    -0.14700
C918        C  0.65027738  0.40721376  0.33286665    -0.29800
H919        H  0.70646911  0.44631859  0.33918963     0.14400
H920        H  0.62123976  0.39968560  0.33748147     0.14900
C921        C  0.75325855  0.33100582  0.33988089    -0.14700
C922        C  0.78891475  0.35702508  0.34564536    -0.29800
H923        H  0.74358234  0.30376054  0.35106830     0.14400
H924        H  0.79914938  0.38452262  0.33492731     0.14900
C925        C  0.79393547  0.35782668  0.17969188    -0.14700
C926        C  0.75876343  0.33049988  0.18521322    -0.29800
H927        H  0.80274395  0.38502738  0.19014532     0.14400
H928        H  0.75028532  0.30400270  0.17294560     0.14900
C929        C  0.58012784  0.25110158  0.33391826    -0.14700
C930        C  0.57155128  0.21732960  0.34486871    -0.29800
H931        H  0.56302739  0.26263669  0.34312642     0.14400
H932        H  0.58909728  0.20603177  0.33631741     0.14900
C933        C  0.58611994  0.24744945  0.17709403    -0.14700
C934        C  0.58276057  0.21434612  0.17251518    -0.29800
H935        H  0.56555854  0.25342721  0.16509039     0.14400
H936        H  0.60420295  0.20871816  0.18272022     0.14900
C937        C  0.92693975  0.15146946  0.35021207    -0.14700
C938        C  0.91879135  0.17759669  0.34034699    -0.29800
H939        H  0.90761952  0.12303227  0.34396513     0.14400
H940        H  0.93746588  0.20562378  0.34865022     0.14900
C941        C  0.92024845  0.17468748  0.18809271    -0.14700
C942        C  0.92394101  0.14748399  0.17332016    -0.29800
H943        H  0.94170987  0.20283480  0.18304972     0.14400
H944        H  0.90185016  0.11935414  0.17712501     0.14900
C945        C  0.85139320  0.27806066  0.17461062    -0.14700
C946        C  0.82046226  0.24771542  0.18629680    -0.29800
H947        H  0.87877346  0.28077472  0.17876210     0.14400
H948        H  0.79305170  0.24445712  0.18089966     0.14900
C949        C  0.84038530  0.27177912  0.34859194    -0.14700
C950        C  0.80961333  0.24159303  0.33712293    -0.29800
H951        H  0.86773089  0.27444811  0.34365363     0.14400
H952        H  0.78187713  0.23704240  0.34388519     0.14900
C953        C  0.74118360  0.06924802  0.33630462    -0.14700
C954        C  0.70593979  0.06220702  0.34294551    -0.29800
H955        H  0.74997381  0.05035128  0.34639018     0.14400
H956        H  0.69744480  0.08186450  0.33478939     0.14900
C957        C  0.71317620  0.07117642  0.16864143    -0.14700
C958        C  0.74466808  0.07402420  0.18304195    -0.29800
H959        H  0.70637601  0.09268021  0.17348093     0.14400
H960        H  0.75217634  0.05323174  0.17701533     0.14900
O961        O  0.85857779  0.23459723  0.70849039    -0.80000
C962        C  0.77200648  0.10496657  0.79717347     0.99300
O963        O  0.76069729  0.12271839  0.77806845    -0.69100
O964        O  0.78916179  0.19311402  0.78953694    -0.72700
Al965      Al  0.78447963  0.16523706  0.74664753     1.49000
C966        C  0.81608498  0.22353585  0.79869308     0.94600
O967        O  0.89025950  0.20733761  0.79610212    -0.79000
O968        O  0.86993267  0.14803231  0.70960837    -0.72500
Al969      Al  0.87077457  0.21682493  0.75218068     1.90100
O970        O  0.87827952  0.15174110  0.78473776    -0.71600
O971        O  0.79825640  0.10319311  0.71900721    -0.71400
O972        O  0.80521656  0.11116931  0.79380013    -0.77100
O973        O  0.77258877  0.13599230  0.70333733    -0.75300
O974        O  0.83088277  0.17153443  0.75012315    -1.11400
O975        O  0.79775102  0.20629914  0.71448137    -0.70600
C976        C  0.82741733  0.23090772  0.69948658     1.00100
C977        C  0.89558998  0.18090863  0.80262756     0.96500
Al978      Al  0.83736091  0.13232266  0.75162443     1.55600
O979        O  0.84777752  0.23592439  0.78355906    -0.75300
C980        C  0.77554445  0.10773985  0.69984165     1.00700
C981        C  0.89767195  0.17931866  0.70362402     0.95500
O982        O  0.90175405  0.20679671  0.72116901    -0.80600
O983        O  0.73548048  0.36392929  0.78610083    -0.80000
C984        C  0.61419317  0.27704434  0.69869204     0.99300
O985        O  0.64394180  0.27919972  0.71002976    -0.69100
O986        O  0.71265820  0.31174263  0.72999065    -0.72700
Al987      Al  0.66703478  0.29712949  0.75574702     1.49000
C988        C  0.73232967  0.33811509  0.70845918     0.94600
O989        O  0.69848065  0.40770731  0.71801869    -0.79000
O990        O  0.63979687  0.38320003  0.77567818    -0.72500
Al991      Al  0.71165770  0.38092226  0.75160071     1.90100
O992        O  0.64138174  0.36978096  0.70037879    -0.71600
O993        O  0.60289955  0.31279278  0.78772839    -0.71400
O994        O  0.60240573  0.29749987  0.71218715    -0.77100
O995        O  0.62120235  0.27241637  0.78236671    -0.75300
O996        O  0.66780923  0.33960279  0.75028611    -1.11400
O997        O  0.69017095  0.30989348  0.80242248    -0.70600
C998        C  0.72248001  0.33621494  0.80722590     1.00100
C999        C  0.67095216  0.40016891  0.69750725     0.96500
Al1000     Al  0.62521750  0.34060214  0.74436573     1.55600
O1001       O  0.73104820  0.36744453  0.70990795    -0.75300
C1002       C  0.60071364  0.28315959  0.79732443     1.00700
C1003       C  0.66790300  0.40131419  0.79632050     0.95500
O1004       O  0.69685279  0.39837419  0.79303972    -0.80600
C1005       C  0.86650442  0.37121918  0.60312218     0.04900
C1006       C  0.83816281  0.37608224  0.61935905    -0.11300
C1007       C  0.81570779  0.35318595  0.64805670     0.02400
C1008       C  0.82159777  0.32483727  0.66056339    -0.09800
C1009       C  0.84852307  0.31806242  0.64408813     0.04900
C1010       C  0.87165570  0.34197745  0.61565578    -0.09200
H1011       H  0.83402625  0.39834622  0.61011577     0.10500
H1012       H  0.80633725  0.30889081  0.68466619     0.08000
H1013       H  0.89302543  0.33747759  0.60319332     0.07900
C1014       C  0.86475118  0.36314676  0.89125019     0.04900
C1015       C  0.83728729  0.37127038  0.87888645    -0.11300
C1016       C  0.80852508  0.34686490  0.85591965     0.02400
C1017       C  0.80757591  0.31448693  0.84482404    -0.09800
C1018       C  0.83523767  0.30650107  0.85637048     0.04900
C1019       C  0.86339320  0.33073383  0.87993026    -0.09200
H1020       H  0.83770148  0.39609500  0.88735002     0.10500
H1021       H  0.78694149  0.29705074  0.82485902     0.08000
H1022       H  0.88509563  0.32488140  0.88856079     0.07900
C1023       C  0.62071766  0.99199491  0.87463189     0.04900
C1024       C  0.65071918  0.02688757  0.86452354    -0.11900
C1025       C  0.68007225  0.03021869  0.84140454     0.02400
C1026       C  0.67890673  0.99842125  0.82802108    -0.09800
C1027       C  0.64879159  0.47028524  0.84884901     0.04900
C1028       C  0.62226963  0.47188305  0.87271097    -0.09200
H1029       H  0.65199716  0.05152299  0.87489282     0.10500
H1030       H  0.70018750  0.00077247  0.80856050     0.08000
H1031       H  0.59695849  0.44680583  0.87952920     0.07900
C1032       C  0.62430029  0.50528434  0.62199813     0.04900
C1033       C  0.62110936  0.47108312  0.63092598    -0.11300
C1034       C  0.64869895  0.46920013  0.65209998     0.02400
C1035       C  0.67885083  0.50178561  0.66518304    -0.09800
C1036       C  0.68521778  0.03531189  0.65605395     0.04900
C1037       C  0.65485214  0.03510994  0.63902961    -0.09200
H1038       H  0.59721526  0.44587102  0.62215088     0.10500
H1039       H  0.69842981  0.50050502  0.68414571     0.08000
H1040       H  0.65543778  0.06088328  0.63442845     0.07900
C1041       C  0.50569121  0.14270069  0.61858158     0.04900
C1042       C  0.53569126  0.17803229  0.62718793    -0.11300
C1043       C  0.52912647  0.20266096  0.64836359     0.02400
C1044       C  0.49297701  0.19162458  0.66060725    -0.09800
C1045       C  0.96598273  0.16196073  0.64707749     0.04900
C1046       C  0.96436060  0.13533151  0.62304373    -0.09200
H1047       H  0.56369134  0.18619924  0.61740542     0.10500
H1048       H  0.48849377  0.20967527  0.67865982     0.08000
H1049       H  0.93727987  0.11301898  0.61512527     0.07900
C1050       C  0.00342534  0.14326637  0.88948008     0.04900
C1051       C  0.96862527  0.13847296  0.87768136    -0.11300
C1052       C  0.96720814  0.16426685  0.85378348     0.02400
C1053       C  0.00079616  0.19411931  0.84106209    -0.09800
C1054       C  0.53626936  0.20075972  0.85703265     0.04900
C1055       C  0.53853421  0.17675075  0.88248147    -0.09200
H1056       H  0.94275921  0.11521637  0.88715711     0.10500
H1057       H  0.99971760  0.21212829  0.82023087     0.08000
H1058       H  0.56572633  0.18109364  0.89067215     0.07900
O1059       O  0.94355926  0.47788208  0.95193571    -0.80000
C1060       C  0.54589703  0.98815849  0.56017675     0.99300
O1061       O  0.53460930  0.46710386  0.52328254    -0.69100
O1062       O  0.98266289  0.44306870  0.53495498    -0.72700
Al1063     Al  0.48887751  0.45467665  0.00690468     1.49000
C1064       C  0.94967180  0.43676490  0.53960809     0.94600
O1065       O  0.97840309  0.04828403  0.53517086    -0.79000
O1066       O  0.51666406  0.06922050  0.96980745    -0.72500
Al1067     Al  0.96336286  0.50077380  0.49363505     1.90100
O1068       O  0.52149536  0.06545574  0.54888598    -0.71600
O1069       O  0.55300671  0.03436271  0.95239771    -0.71400
O1070       O  0.54654635  0.01853706  0.55991188    -0.77100
O1071       O  0.51638980  0.46196229  0.96267164    -0.75300
O1072       O  0.49090898  0.99856974  0.99408178    -1.11400
O1073       O  0.94893852  0.43056272  0.96827916    -0.70600
C1074       C  0.93536840  0.44518137  0.94742758     1.00100
C1075       C  0.49021922  0.05751095  0.56270933     0.96500
Al1076     Al  0.53380779  0.04059026  0.99791401     1.55600
O1077       O  0.93746238  0.45433030  0.52096766    -0.75300
C1078       C  0.54622128  0.48942571  0.95217472     1.00700
C1079       C  0.98832498  0.06057522  0.94836485     0.95500
O1080       O  0.96147692  0.03031074  0.95845476    -0.80600
C1081       C  0.00743719  0.11815221  0.91550747    -0.14700
C1082       C  0.98169369  0.08300671  0.92121401    -0.29800
H1083       H  0.53469775  0.13187680  0.93942781     0.14400
H1084       H  0.95519535  0.07078008  0.90683035     0.14900
C1085       C  0.51223921  0.11710128  0.59486161    -0.14700
C1086       C  0.48702514  0.08108215  0.59122315    -0.29800
H1087       H  0.53791040  0.12866401  0.57850942     0.14400
H1088       H  0.04081574  0.10510005  0.59639117     0.14900
C1089       C  0.59392345  0.00595325  0.60834682    -0.14700
C1090       C  0.56856699  0.98031433  0.58629654    -0.29800
H1091       H  0.59533267  0.03245081  0.60905767     0.14400
H1092       H  0.57149762  0.45718295  0.57434554     0.14900
C1093       C  0.56881921  0.48407066  0.92328395    -0.14700
C1094       C  0.60375155  0.51008870  0.91454962    -0.29800
H1095       H  0.59796984  0.03973260  0.89991631     0.14400
H1096       H  0.61471415  0.53639063  0.92813890     0.14900
C1097       C  0.89485862  0.38724560  0.91664945    -0.14700
C1098       C  0.90794360  0.42334300  0.91908915    -0.29800
H1099       H  0.90689696  0.37457341  0.93395430     0.14400
H1100       H  0.89741829  0.43693499  0.90119915     0.14900
C1101       C  0.88975721  0.39768393  0.57334479    -0.14700
C1102       C  0.92584682  0.40802699  0.56704567    -0.29800
H1103       H  0.87747851  0.41136011  0.55801122     0.14400
H1104       H  0.93897239  0.39569807  0.58317490     0.14900
C1105       C  0.64404415  0.43322408  0.66410233    -0.14700
C1106       C  0.67366849  0.42910641  0.67235312    -0.29800
H1107       H  0.61593211  0.41106045  0.66985854     0.14400
H1108       H  0.70169459  0.45111083  0.66603795     0.14900
C1109       C  0.64131285  0.43566938  0.83020192    -0.14700
C1110       C  0.66945433  0.42880241  0.82292449    -0.29800
H1111       H  0.61335964  0.41729001  0.82020329     0.14400
H1112       H  0.69659205  0.44634251  0.83520603     0.14900
C1113       C  0.74611007  0.33188282  0.83484980    -0.14700
C1114       C  0.78205675  0.35703800  0.83967765    -0.29800
H1115       H  0.73515879  0.30510282  0.84776306     0.14400
H1116       H  0.79311036  0.38442950  0.82831494     0.14900
C1117       C  0.78772297  0.36040018  0.66670711    -0.14700
C1118       C  0.75702411  0.33307129  0.68261519    -0.29800
H1119       H  0.79323666  0.38835612  0.66883808     0.14400
H1120       H  0.75097161  0.30507815  0.67910607     0.14900
C1121       C  0.57223936  0.25993815  0.82469386    -0.14700
C1122       C  0.57036116  0.22934491  0.83837424    -0.29800
H1123       H  0.55084830  0.26690678  0.83179075     0.14400
H1124       H  0.59311931  0.22377249  0.83330062     0.14900
C1125       C  0.59214187  0.24730893  0.67202107    -0.14700
C1126       C  0.55811921  0.23960562  0.66098062    -0.29800
H1127       H  0.60180862  0.22805850  0.66614668     0.14400
H1128       H  0.54865300  0.25874160  0.66837975     0.14900
C1129       C  0.93112248  0.15775181  0.83806912    -0.14700
C1130       C  0.92489736  0.18541908  0.82904157    -0.29800
H1131       H  0.91065332  0.12988298  0.83092668     0.14400
H1132       H  0.94435379  0.21298297  0.83802672     0.14900
C1133       C  0.92756560  0.18462939  0.67761128    -0.14700
C1134       C  0.93089993  0.15668033  0.66439548    -0.29800
H1135       H  0.94950709  0.21254302  0.67241249     0.14400
H1136       H  0.90821424  0.12886609  0.66855550     0.14900
C1137       C  0.85387208  0.28781928  0.65951132    -0.14700
C1138       C  0.82454842  0.25672081  0.67321619    -0.29800
H1139       H  0.88214121  0.29253851  0.66256638     0.14400
H1140       H  0.79642279  0.25180773  0.66829536     0.14900
C1141       C  0.83895043  0.27660113  0.83928686    -0.14700
C1142       C  0.80993711  0.24632488  0.82550580    -0.29800
H1143       H  0.86715745  0.28116519  0.83525792     0.14400
H1144       H  0.78140984  0.23998047  0.83125308     0.14900
C1145       C  0.74529137  0.07411258  0.82104840    -0.14700
C1146       C  0.70984052  0.06670154  0.82773289    -0.29800
H1147       H  0.75390615  0.05484485  0.83029600     0.14400
H1148       H  0.70167190  0.08680591  0.82048608     0.14900
C1149       C  0.71523901  0.07060285  0.67023764    -0.14700
C1150       C  0.75020759  0.07748512  0.67599093    -0.29800
H1151       H  0.70759236  0.09097880  0.67815861     0.14400
H1152       H  0.75838303  0.05749852  0.66827954     0.14900
O1153       O  0.85480359  0.72231727  0.19618232    -0.80000
C1154       C  0.77613819  0.60565205  0.29896790     0.99300
O1155       O  0.76328974  0.62223460  0.28040409    -0.69100
O1156       O  0.79556575  0.69364638  0.28579388    -0.72700
Al1157     Al  0.78425483  0.66086770  0.24496534     1.49000
C1158       C  0.82353947  0.72507341  0.28949088     0.94600
O1159       O  0.89265117  0.70388926  0.28401446    -0.79000
O1160       O  0.86558196  0.63683608  0.20174614    -0.72500
Al1161     Al  0.87093894  0.70996012  0.24022578     1.90100
O1162       O  0.87872894  0.64697041  0.27658356    -0.71600
O1163       O  0.79342256  0.59564879  0.21648149    -0.71400
O1164       O  0.80741906  0.60879149  0.29098844    -0.77100
O1165       O  0.76541926  0.62718854  0.20445385    -0.75300
O1166       O  0.83021475  0.66543792  0.24360168    -1.11400
O1167       O  0.79522303  0.69856235  0.20996206    -0.70600
C1168       C  0.82340431  0.71981582  0.19077946     1.00100
C1169       C  0.89713560  0.67732410  0.29244701     0.96500
Al1170     Al  0.83561767  0.62568607  0.24619289     1.55600
O1171       O  0.85258140  0.73476821  0.27023592    -0.75300
C1172       C  0.76877020  0.59929913  0.19952176     1.00700
C1173       C  0.89394529  0.66713416  0.19381192     0.95500
O1174       O  0.89915369  0.69588743  0.20950619    -0.80600
O1175       O  0.73344394  0.86723368  0.28332869    -0.80000
C1176       C  0.60492990  0.78378226  0.19435127     0.99300
O1177       O  0.62377256  0.77258586  0.21187452    -0.69100
O1178       O  0.69548426  0.80443519  0.19825503    -0.72700
Al1179     Al  0.66670889  0.79535709  0.24235477     1.49000
C1180       C  0.72722015  0.83133074  0.19126232     0.94600
O1181       O  0.70393855  0.89928246  0.19713238    -0.79000
O1182       O  0.64314755  0.87213541  0.28643501    -0.72500
Al1183     Al  0.71539576  0.88021861  0.24037427     1.90100
O1184       O  0.64648478  0.88497340  0.21139852    -0.71600
O1185       O  0.60127826  0.80263719  0.27602768    -0.71400
O1186       O  0.60843572  0.81462940  0.20066347    -0.77100
O1187       O  0.63750313  0.77938680  0.28680294    -0.75300
O1188       O  0.67032351  0.83961521  0.24207936    -1.11400
O1189       O  0.70857374  0.80856243  0.27290684    -0.70600
C1190       C  0.73115860  0.83679716  0.29011018     1.00100
C1191       C  0.67572112  0.90310249  0.19213984     0.96500
Al1192     Al  0.62867286  0.84322076  0.24346972     1.55600
O1193       O  0.73849301  0.86114332  0.20805510    -0.75300
C1194       C  0.60870263  0.78142965  0.29418402     1.00700
C1195       C  0.67377123  0.90068050  0.29188735     0.95500
O1196       O  0.70238679  0.90795165  0.27272661    -0.80600
C1197       C  0.87568972  0.86672397  0.10933300     0.04900
C1198       C  0.84635126  0.87234084  0.12171075    -0.11300
C1199       C  0.81647151  0.84531784  0.14256573     0.02400
C1200       C  0.81648741  0.81284228  0.15149721    -0.09800
C1201       C  0.84568081  0.80702374  0.13942381     0.04900
C1202       C  0.87489320  0.83395927  0.11817846    -0.09200
H1203       H  0.84624498  0.89732252  0.11486028     0.10500
H1204       H  0.79517222  0.79338926  0.17015638     0.08000
H1205       H  0.89769384  0.82975559  0.10923754     0.07900
C1206       C  0.87627348  0.87160236  0.37610967     0.04900
C1207       C  0.84688593  0.87745474  0.36453630    -0.11300
C1208       C  0.81848969  0.85223609  0.34151078     0.02400
C1209       C  0.81989018  0.82120476  0.32950929    -0.09800
C1210       C  0.84891283  0.81493545  0.34004404     0.04900
C1211       C  0.87732692  0.84055406  0.36293277    -0.09200
H1212       H  0.84629597  0.90190837  0.37245904     0.10500
H1213       H  0.79977948  0.80310773  0.30953771     0.08000
H1214       H  0.90030358  0.83626403  0.37053765     0.07900
C1215       C  0.63002310  0.49135651  0.38018144     0.04900
C1216       C  0.65659345  0.52674494  0.36729700    -0.11900
C1217       C  0.69056576  0.53324894  0.35112387     0.02400
C1218       C  0.69721836  0.50394850  0.34679853    -0.09800
C1219       C  0.64750937  0.95945291  0.35141256     0.04900
C1220       C  0.61806210  0.95547173  0.37439693    -0.09200
H1221       H  0.65089333  0.54916202  0.36936542     0.10500
H1222       H  0.72201065  0.50788530  0.33211464     0.08000
H1223       H  0.59538776  0.92831566  0.38099169     0.07900
C1224       C  0.63205493  0.00715437  0.10689731     0.04900
C1225       C  0.62861333  0.97297323  0.11697762    -0.11300
C1226       C  0.65361819  0.97112840  0.14244516     0.02400
C1227       C  0.68129549  0.00347156  0.15837971    -0.09800
C1228       C  0.68031616  0.52659781  0.14966431     0.04900
C1229       C  0.65221169  0.52334494  0.12515788    -0.09200
H1230       H  0.60705549  0.94789782  0.10503519     0.10500
H1231       H  0.69821474  0.00159309  0.18020235     0.08000
H1232       H  0.65369245  0.54801353  0.11437416     0.07900
C1233       C  0.50869757  0.64252509  0.10527200     0.04900
C1234       C  0.54126698  0.67340777  0.11725641    -0.11300
C1235       C  0.53911738  0.69810584  0.14155357     0.02400
C1236       C  0.50404432  0.69183483  0.15382483    -0.09800
C1237       C  0.96872986  0.65244782  0.14513687     0.04900
C1238       C  0.97342654  0.62824443  0.12168623    -0.09200
H1239       H  0.56840828  0.67776801  0.10837853     0.10500
H1240       H  0.50261044  0.70945780  0.17481125     0.08000
H1241       H  0.94887669  0.60422419  0.11166639     0.07900
C1242       C  0.99382148  0.63399446  0.38915824     0.04900
C1243       C  0.96153359  0.63281722  0.37519468    -0.11300
C1244       C  0.96398933  0.65931649  0.35007797     0.02400
C1245       C  0.99924929  0.68758017  0.33896936    -0.09800
C1246       C  0.54156034  0.69794213  0.35238919     0.04900
C1247       C  0.53955017  0.67127356  0.37764057    -0.09200
H1248       H  0.93423359  0.61058346  0.38322042     0.10500
H1249       H  0.00095720  0.70638954  0.31749451     0.08000
H1250       H  0.56514081  0.67243754  0.38660379     0.07900
O1251       O  0.92580859  0.96223671  0.47460489    -0.80000
C1252       C  0.55496202  0.50375073  0.05154545     0.99300
O1253       O  0.51938998  0.96236815  0.03121184    -0.69100
O1254       O  0.96285584  0.94265973  0.03657999    -0.72700
Al1255     Al  0.48960379  0.95697455  0.50232026     1.49000
C1256       C  0.94551973  0.95376756  0.05710861     0.94600
O1257       O  0.96763711  0.52509456  0.04401337    -0.79000
O1258       O  0.54273828  0.56785557  0.45999855    -0.72500
Al1259     Al  0.95793245  0.00756197  0.00479556     1.90100
O1260       O  0.51684090  0.56693026  0.02965904    -0.71600
O1261       O  0.57245397  0.52707486  0.47299285    -0.71400
O1262       O  0.55339791  0.53161015  0.04160644    -0.77100
O1263       O  0.52463695  0.97325929  0.46149784    -0.75300
O1264       O  0.49997954  0.50307513  0.49409698    -1.11400
O1265       O  0.96569925  0.94896192  0.44832038    -0.70600
C1266       C  0.93353270  0.94566993  0.44980210     1.00100
C1267       C  0.48867315  0.55673122  0.05107892     0.96500
Al1268     Al  0.54480154  0.54237448  0.50259734     1.55600
O1269       O  0.94863484  0.98464414  0.05182055    -0.75300
C1270       C  0.55717896  0.00075061  0.46229687     1.00700
C1271       C  0.01071788  0.56699367  0.44874285     0.95500
O1272       O  0.98009720  0.54651199  0.46581318    -0.80600
C1273       C  0.98881890  0.60475272  0.41587112    -0.14700
C1274       C  0.01457062  0.59452880  0.42091646    -0.29800
H1275       H  0.47251535  0.60004248  0.43244741     0.14400
H1276       H  0.04044796  0.60765254  0.40496448     0.14900
C1277       C  0.51243165  0.61712328  0.07964636    -0.14700
C1278       C  0.48732888  0.58142418  0.07888505    -0.29800
H1279       H  0.53667097  0.62805524  0.06122575     0.14400
H1280       H  0.96812811  0.56303590  0.09929164     0.14900
C1281       C  0.59265214  0.48307197  0.08799096    -0.14700
C1282       C  0.58354305  0.50883404  0.07950776    -0.29800
H1283       H  0.57686582  0.45642633  0.07516449     0.14400
H1284       H  0.56259708  0.95704029  0.07968377     0.14900
C1285       C  0.58703902  0.00599310  0.43594737    -0.14700
C1286       C  0.58526880  0.98031433  0.41278547    -0.29800
H1287       H  0.61923186  0.53608287  0.42382657     0.14400
H1288       H  0.56030119  0.95355013  0.41308461     0.14900
C1289       C  0.90697737  0.89784369  0.40077243    -0.14700
C1290       C  0.90384965  0.92164073  0.42357249    -0.29800
H1291       H  0.93249323  0.89619928  0.40156546     0.14400
H1292       H  0.87784474  0.92223965  0.42500204     0.14900
C1293       C  0.90693435  0.89355874  0.08580030    -0.14700
C1294       C  0.91877434  0.92951138  0.08548539    -0.29800
H1295       H  0.92040195  0.88298399  0.06747213     0.14400
H1296       H  0.90638242  0.94089074  0.10408158     0.14900
C1297       C  0.64875151  0.93555971  0.15643968    -0.14700
C1298       C  0.67838804  0.93166415  0.16600962    -0.29800
H1299       H  0.62056148  0.91377538  0.16260262     0.14400
H1300       H  0.70633435  0.95260889  0.15770261     0.14900
C1301       C  0.64568916  0.92707034  0.33330664    -0.14700
C1302       C  0.67626661  0.92741965  0.31929395    -0.29800
H1303       H  0.61821945  0.90362003  0.32865028     0.14400
H1304       H  0.70399184  0.94995039  0.32490855     0.14900
C1305       C  0.75572134  0.83280213  0.31693428    -0.14700
C1306       C  0.78961344  0.86012080  0.32638383    -0.29800
H1307       H  0.74770860  0.80496073  0.32490568     0.14400
H1308       H  0.79758285  0.88820073  0.31955683     0.14900
C1309       C  0.78780559  0.85296899  0.15880026    -0.14700
C1310       C  0.75243075  0.82638980  0.16556022    -0.29800
H1311       H  0.79679439  0.88071805  0.16764378     0.14400
H1312       H  0.74293775  0.79903785  0.15514468     0.14900
C1313       C  0.58167736  0.75820164  0.32302848    -0.14700
C1314       C  0.57758701  0.72601294  0.33513164    -0.29800
H1315       H  0.56090298  0.76577687  0.33087284     0.14400
H1316       H  0.59875726  0.71858155  0.32865466     0.14900
C1317       C  0.57626632  0.75942076  0.16829444    -0.14700
C1318       C  0.57352743  0.72760845  0.15796760    -0.29800
H1319       H  0.55503115  0.76619345  0.16016901     0.14400
H1320       H  0.59598947  0.72193775  0.16409794     0.14900
C1321       C  0.92977169  0.65437672  0.33170683    -0.14700
C1322       C  0.92622567  0.68261267  0.31920312    -0.29800
H1323       H  0.90783662  0.62657438  0.32634859     0.14400
H1324       H  0.94678048  0.71041908  0.32642377     0.14900
C1325       C  0.92346198  0.67070689  0.16762093    -0.14700
C1326       C  0.93094144  0.64375855  0.15937126    -0.29800
H1327       H  0.94358487  0.69848604  0.15928172     0.14400
H1328       H  0.91083979  0.61563143  0.16650009     0.14900
C1329       C  0.84910388  0.77568603  0.15321982    -0.14700
C1330       C  0.81943896  0.74423864  0.16438139    -0.29800
H1331       H  0.87712557  0.78014365  0.15786063     0.14400
H1332       H  0.79133331  0.73915283  0.15909052     0.14900
C1333       C  0.85177217  0.78404267  0.32332434    -0.14700
C1334       C  0.82141942  0.75179178  0.31465520    -0.29800
H1335       H  0.87948379  0.78882077  0.31595387     0.14400
H1336       H  0.79386917  0.74592288  0.32409276     0.14900
C1337       C  0.75332447  0.57980921  0.32852849    -0.14700
C1338       C  0.71679466  0.56906472  0.33367093    -0.29800
H1339       H  0.76560815  0.56562618  0.34286188     0.14400
H1340       H  0.70491797  0.58432214  0.32074786     0.14900
C1341       C  0.70952725  0.56312971  0.16361959    -0.14700
C1342       C  0.74310039  0.56883096  0.17537257    -0.29800
H1343       H  0.70222324  0.58446083  0.16692196     0.14400
H1344       H  0.75070369  0.54789366  0.17057594     0.14900
O1345       O  0.85999472  0.72304791  0.70609971    -0.80000
C1346       C  0.77804009  0.60226853  0.80345937     0.99300
O1347       O  0.76656342  0.62089008  0.78632861    -0.69100
O1348       O  0.79931689  0.69163611  0.79555506    -0.72700
Al1349     Al  0.78838564  0.66123646  0.75317890     1.49000
C1350       C  0.82713314  0.72296175  0.79972189     0.94600
O1351       O  0.89467231  0.69995935  0.79333041    -0.79000
O1352       O  0.86700418  0.63675604  0.70720204    -0.72500
Al1353     Al  0.87475442  0.70872258  0.74978417     1.90100
O1354       O  0.88052816  0.64346142  0.78191581    -0.71600
O1355       O  0.79576839  0.59607807  0.72179529    -0.71400
O1356       O  0.80934974  0.60534483  0.79596747    -0.77100
O1357       O  0.77049524  0.63037741  0.71126778    -0.75300
O1358       O  0.83355208  0.66464890  0.75150226    -1.11400
O1359       O  0.80064770  0.70079191  0.72009280    -0.70600
C1360       C  0.82902264  0.72147783  0.70079179     1.00100
C1361       C  0.89835045  0.67256433  0.79994339     0.96500
Al1362     Al  0.83777684  0.62415199  0.75169091     1.55600
O1363       O  0.85639254  0.73310131  0.78060803    -0.75300
C1364       C  0.77248617  0.60195767  0.70523792     1.00700
C1365       C  0.89590643  0.66682978  0.70037109     0.95500
O1366       O  0.90278980  0.69498794  0.71836809    -0.80600
O1367       O  0.74794670  0.86565794  0.77916255    -0.80000
C1368       C  0.62622673  0.77416709  0.69407372     0.99300
O1369       O  0.65410771  0.77486391  0.70880873    -0.69100
O1370       O  0.72348838  0.81099590  0.72582646    -0.72700
Al1371     Al  0.67882946  0.79658551  0.75299551     1.49000
C1372       C  0.74179782  0.83635717  0.70277590     0.94600
O1373       O  0.70790469  0.90653740  0.71110069    -0.79000
O1374       O  0.64837342  0.87937218  0.76919105    -0.72500
Al1375     Al  0.72185603  0.88034800  0.74467739     1.90100
O1376       O  0.65110014  0.86823943  0.69397095    -0.71600
O1377       O  0.61040410  0.80835803  0.77973297    -0.71400
O1378       O  0.61494456  0.79597543  0.70442035    -0.77100
O1379       O  0.63408886  0.77220921  0.78109065    -0.75300
O1380       O  0.67823018  0.83819904  0.74481389    -1.11400
O1381       O  0.70371434  0.81264018  0.79882585    -0.70600
C1382       C  0.73630346  0.83909571  0.80163338     1.00100
C1383       C  0.67993847  0.89919384  0.69150452     0.96500
Al1384     Al  0.63506982  0.83788418  0.73745056     1.55600
O1385       O  0.74051861  0.86575649  0.70326572    -0.75300
C1386       C  0.61007254  0.78025243  0.79193446     1.00700
C1387       C  0.67685352  0.89956549  0.78864857     0.95500
O1388       O  0.70690156  0.89845327  0.78547457    -0.80600
C1389       C  0.87715427  0.86050891  0.60538880     0.04900
C1390       C  0.85002076  0.86840166  0.61966753    -0.11300
C1391       C  0.82455835  0.84591679  0.64664139     0.02400
C1392       C  0.82635413  0.81529718  0.65939293    -0.09800
C1393       C  0.85229777  0.80630296  0.64434483     0.04900
C1394       C  0.87778014  0.82915527  0.61736078    -0.09200
H1395       H  0.84839458  0.89187451  0.60975624     0.10500
H1396       H  0.80884360  0.79951083  0.68254519     0.08000
H1397       H  0.89870852  0.82309683  0.60643209     0.07900
C1398       C  0.88040937  0.86849800  0.88615844     0.04900
C1399       C  0.85304922  0.87641806  0.87246890    -0.11300
C1400       C  0.82460246  0.85178672  0.84916543     0.02400
C1401       C  0.82400968  0.81942563  0.83875257    -0.09800
C1402       C  0.85182840  0.81179049  0.85067703     0.04900
C1403       C  0.87997115  0.83651113  0.87424641    -0.09200
H1404       H  0.85403853  0.90190649  0.87911544     0.10500
H1405       H  0.80340904  0.80152947  0.81897629     0.08000
H1406       H  0.90173185  0.83088928  0.88318991     0.07900
C1407       C  0.62915468  0.50575340  0.88780110     0.04900
C1408       C  0.66218835  0.53764580  0.87776073    -0.11900
C1409       C  0.68847089  0.53640572  0.85405946     0.02400
C1410       C  0.68175473  0.50279469  0.83991783    -0.09800
C1411       C  0.64903534  0.96369002  0.83703422     0.04900
C1412       C  0.62013631  0.96074468  0.86013958    -0.09200
H1413       H  0.66737425  0.56389208  0.88809097     0.10500
H1414       H  0.70108240  0.50230715  0.81967865     0.08000
H1415       H  0.59707127  0.93386301  0.86695058     0.07900
C1416       C  0.62393312  0.00256839  0.62767999     0.04900
C1417       C  0.62318953  0.96906306  0.63453544    -0.11300
C1418       C  0.65360760  0.96849656  0.65178207     0.02400
C1419       C  0.68449678  0.00197382  0.66255232    -0.09800
C1420       C  0.68231351  0.53585768  0.65660031     0.04900
C1421       C  0.65477909  0.53728866  0.63546890    -0.09200
H1422       H  0.59899418  0.94341505  0.62726629     0.10500
H1423       H  0.70675734  0.00196784  0.67827331     0.08000
H1424       H  0.65730818  0.56363241  0.62924082     0.07900
C1425       C  0.51759378  0.64368709  0.60965554     0.04900
C1426       C  0.54878012  0.67844756  0.61751929    -0.11300
C1427       C  0.54407734  0.70420482  0.63857282     0.02400
C1428       C  0.50866539  0.69493139  0.65183436    -0.09800
C1429       C  0.96672006  0.65136725  0.64630143     0.04900
C1430       C  0.96985212  0.62718960  0.62162779    -0.09200
H1431       H  0.57628506  0.68552037  0.60703251     0.10500
H1432       H  0.50593405  0.71410089  0.66975529     0.08000
H1433       H  0.94471738  0.60308333  0.61279361     0.07900
C1434       C  0.99673923  0.62774359  0.89006320     0.04900
C1435       C  0.96330342  0.62518262  0.87752560    -0.11300
C1436       C  0.96390489  0.65018155  0.85174853     0.02400
C1437       C  0.99801996  0.67736801  0.83753869    -0.09800
C1438       C  0.54217399  0.69339986  0.84619382     0.04900
C1439       C  0.54397530  0.66668351  0.86823837    -0.09200
H1440       H  0.93659322  0.60351848  0.88773242     0.10500
H1441       H  0.99787924  0.69450582  0.81513134     0.08000
H1442       H  0.57103811  0.67055128  0.87621143     0.07900
O1443       O  0.92840085  0.96225000  0.97982837    -0.80000
C1444       C  0.55194605  0.49117242  0.54735247     0.99300
O1445       O  0.52751260  0.96425241  0.53642592    -0.69100
O1446       O  0.95483480  0.93377277  0.52382435    -0.72700
Al1447     Al  0.49022416  0.95620338  0.98827533     1.49000
C1448       C  0.94147214  0.94520756  0.54892120     0.94600
O1449       O  0.96840132  0.52335673  0.53998972    -0.79000
O1450       O  0.51797840  0.55414092  0.95379556    -0.72500
Al1451     Al  0.95738502  0.00479265  0.50435805     1.90100
O1452       O  0.52835444  0.56816369  0.53393750    -0.71600
O1453       O  0.55695879  0.52037744  0.96668542    -0.71400
O1454       O  0.55243388  0.52138599  0.54625274    -0.77100
O1455       O  0.53385317  0.97565307  0.95584623    -0.75300
O1456       O  0.48979640  0.49747844  0.00322642    -1.11400
O1457       O  0.96847973  0.94553966  0.96049932    -0.70600
C1458       C  0.93647002  0.94287238  0.95923457     1.00100
C1459       C  0.49733997  0.55988669  0.54851436     0.96500
Al1460     Al  0.53270333  0.53958534  0.99833304     1.55600
O1461       O  0.94644495  0.97717420  0.54811062    -0.75300
C1462       C  0.55459846  0.00685815  0.94131705     1.00700
C1463       C  0.01329794  0.56365379  0.95417395     0.95500
O1464       O  0.98219288  0.54668757  0.97097761    -0.80600
C1465       C  0.99328446  0.60052543  0.91836071    -0.14700
C1466       C  0.01990519  0.59201584  0.92619553    -0.29800
H1467       H  0.54208915  0.61000146  0.90658220     0.14400
H1468       H  0.04665089  0.60545445  0.91175613     0.14900
C1469       C  0.52223219  0.61753677  0.58492666    -0.14700
C1470       C  0.49455833  0.58311448  0.57765686    -0.29800
H1471       H  0.54891096  0.62771263  0.57060872     0.14400
H1472       H  0.96074405  0.56234843  0.59134252     0.14900
C1473       C  0.59713171  0.50952165  0.59843510    -0.14700
C1474       C  0.57321037  0.48367146  0.57542833    -0.29800
H1475       H  0.59921574  0.53627496  0.59754944     0.14400
H1476       H  0.56724121  0.95402335  0.58372540     0.14900
C1477       C  0.58247676  0.01255585  0.91189237    -0.14700
C1478       C  0.59017906  0.98634053  0.90131066    -0.29800
H1479       H  0.55662684  0.45751838  0.91026082     0.14400
H1480       H  0.57348453  0.95916942  0.91323289     0.14900
C1481       C  0.91076978  0.89380084  0.91145229    -0.14700
C1482       C  0.90709534  0.91730109  0.93390397    -0.29800
H1483       H  0.93626010  0.89212836  0.91259169     0.14400
H1484       H  0.88093123  0.91767722  0.93457901     0.14900
C1485       C  0.90505459  0.88489025  0.57795444    -0.14700
C1486       C  0.91790928  0.92092007  0.57850653    -0.29800
H1487       H  0.91504783  0.87307980  0.55708774     0.14400
H1488       H  0.90932438  0.93298135  0.60038208     0.14900
C1489       C  0.65087751  0.93277656  0.66245247    -0.14700
C1490       C  0.68118983  0.92897803  0.66830519    -0.29800
H1491       H  0.62328877  0.90998262  0.66886856     0.14400
H1492       H  0.70877660  0.95156210  0.66164049     0.14900
C1493       C  0.64630181  0.93059553  0.81959257    -0.14700
C1494       C  0.67673426  0.92728153  0.81347123    -0.29800
H1495       H  0.61910548  0.90946741  0.81022942     0.14400
H1496       H  0.70341671  0.94745592  0.82483131     0.14900
C1497       C  0.76152459  0.83604084  0.82856911    -0.14700
C1498       C  0.79776401  0.86133244  0.83211068    -0.29800
H1499       H  0.75105803  0.80986626  0.84265538     0.14400
H1500       H  0.80855493  0.88823524  0.81960521     0.14900
C1501       C  0.79795106  0.85591602  0.66348641    -0.14700
C1502       C  0.76477045  0.82984090  0.67619905    -0.29800
H1503       H  0.80668025  0.88454995  0.66776167     0.14400
H1504       H  0.75609643  0.80135644  0.67101527     0.14900
C1505       C  0.57959971  0.75524895  0.81718871    -0.14700
C1506       C  0.57708752  0.72396397  0.83003358    -0.29800
H1507       H  0.55728076  0.76130873  0.82264674     0.14400
H1508       H  0.60059739  0.71930806  0.82607949     0.14900
C1509       C  0.60530410  0.74468969  0.66688372    -0.14700
C1510       C  0.57466599  0.74062282  0.65002995    -0.29800
H1511       H  0.61198876  0.72278843  0.66529525     0.14400
H1512       H  0.56763863  0.76220280  0.65315876     0.14900
C1513       C  0.92892878  0.64608411  0.83664670    -0.14700
C1514       C  0.92610091  0.67543491  0.82686477    -0.29800
H1515       H  0.90671527  0.61870347  0.83020399     0.14400
H1516       H  0.94724316  0.70260916  0.83534450     0.14900
C1517       C  0.92376723  0.67040835  0.67245442    -0.14700
C1518       C  0.93006383  0.64306694  0.66278280    -0.29800
H1519       H  0.94362093  0.69815987  0.66379627     0.14400
H1520       H  0.91009615  0.61502119  0.67036817     0.14900
C1521       C  0.85557220  0.77552638  0.65993452    -0.14700
C1522       C  0.82564189  0.74584407  0.67394517    -0.29800
H1523       H  0.88335280  0.77889216  0.66297032     0.14400
H1524       H  0.79782459  0.74203718  0.66972634     0.14900
C1525       C  0.85458706  0.78083165  0.83448198    -0.14700
C1526       C  0.82436086  0.74909455  0.82497720    -0.29800
H1527       H  0.88236768  0.78524682  0.82805629     0.14400
H1528       H  0.79662013  0.74348047  0.83342469     0.14900
C1529       C  0.75293438  0.57395534  0.82992592    -0.14700
C1530       C  0.71995418  0.57086872  0.83971735    -0.29800
H1531       H  0.75940938  0.55274896  0.83761175     0.14400
H1532       H  0.71448668  0.59311724  0.83381809     0.14900
C1533       C  0.71280225  0.56996457  0.67232213    -0.14700
C1534       C  0.74613822  0.57344895  0.68048629    -0.29800
H1535       H  0.70688762  0.59168821  0.67933905     0.14400
H1536       H  0.75250644  0.55222647  0.67269275     0.14900
loop_ 
_geom_bond_atom_site_label_1 
_geom_bond_atom_site_label_2 
_geom_bond_distance 
_geom_bond_site_symmetry_2 
_ccdc_geom_bond_type 
O1           C16   1.261       .  A
O1           Al9   1.893       .  S
C2           O12   1.259       .  A
C2            O3   1.267       .  A
C2          C185   1.473       .  S
O3           Al5   1.929       .  S
O4            C6   1.256       .  A
O4           Al5   1.907       .  S
Al5          O13   1.918       .  S
Al5          O15   1.925       .  S
Al5          O14   1.804       .  S
C6           O19   1.254       .  A
C6          C182   1.487       .  S
O7           C17   1.265       .  A
O7           Al9   1.920       .  S
O8           C21   1.260       .  A
O8          Al18   1.906       .  S
Al9          O22   1.896       .  S
Al9          O19   1.901       .  S
Al9          O14   1.803       .  S
O10          C17   1.257       .  A
O10         Al18   1.895       .  S
O11          C20   1.252       .  A
O11         Al18   1.885       .  S
O12         Al18   1.878       .  S
O13          C20   1.258       .  A
O14         Al18   1.798       .  S
O15          C16   1.271       .  A
C16         C178   1.482       .  S
C17         C170   1.478       .  S
C20         C190   1.483       .  S
C21          O22   1.257       .  A
C21         C173   1.469       .  S
O23          C38   1.259       .  A
O23         Al31   1.911       .  S
C24          O34   1.258       .  A
C24          O25   1.262       .  A
C24         C165   1.476       .  S
O25         Al27   1.921       .  S
O26          C28   1.263       .  A
O26         Al27   1.890       .  S
Al27         O35   1.901       .  S
Al27         O37   1.905       .  S
Al27         O36   1.787       .  S
C28          O41   1.268       .  A
C28         C158   1.471       .  S
O29          C39   1.256       .  A
O29         Al31   1.899       .  S
O30          C43   1.255       .  A
O30         Al40   1.875       .  S
Al31         O44   1.930       .  S
Al31         O41   1.922       .  S
Al31         O36   1.793       .  S
O32          C39   1.255       .  A
O32         Al40   1.884       .  S
O33          C42   1.257       .  A
O33         Al40   1.887       .  S
O34         Al40   1.897       .  S
O35          C42   1.264       .  A
O36         Al40   1.792       .  S
O37          C38   1.257       .  A
C38         C153   1.481       .  S
C39         C146   1.471       .  S
C42         C161   1.459       .  S
C43          O44   1.268       .  A
C43         C150   1.475       .  S
C45         C141   1.498       .  S
C45          C46   1.414       .  A
C45          C50   1.414       .  A
C46          C47   1.399       .  A
C46          H51   1.081       .  S
C47         C157   1.483       .  S
C47          C48   1.399       .  A
C48          C49   1.397       .  A
C48          H52   1.084       .  S
C49         C177   1.484       .  S
C49          C50   1.411       .  A
C50          H53   1.083       .  S
C54         C137   1.499       .  S
C54          C55   1.413       .  A
C54          C59   1.410       .  A
C55          C56   1.411       .  A
C55          H60   1.082       .  S
C56         C154   1.497       .  S
C56          C57   1.412       .  A
C57          C58   1.406       .  A
C57          H61   1.081       .  S
C58         C181   1.497       .  S
C58          C59   1.405       .  A
C59          H62   1.084       .  S
C63         C518   1.478       .  S
C63          C64   1.415   1_565  A
C63         C452   1.399       .  A
C64          C65   1.404       .  A
C64          H69   1.081       .  S
C65         C186   1.487       .  S
C65          C66   1.404   1_545  A
C66         C451   1.402       .  A
C66          H70   1.083       .  S
C67         C149   1.484       .  S
C67          C68   1.411       .  A
C67         C450   1.395       .  A
C68         C447   1.410       .  A
C68          H71   1.083       .  S
C72         C513   1.489       .  S
C72          C73   1.412       .  A
C72         C461   1.405       .  A
C73          C74   1.401       .  A
C73          H78   1.080       .  S
C74         C145   1.480       .  S
C74          C75   1.401       .  A
C75         C460   1.404       .  A
C75          H79   1.081       .  S
C76         C189   1.498       .  S
C76          C77   1.411       .  A
C76         C459   1.410       .  A
C77         C456   1.418   1_545  A
C77          H80   1.082       .  S
C81         C125   1.484       .  S
C81          C82   1.413   1_655  A
C81         C854   1.404       .  A
C82          C83   1.402       .  A
C82          H87   1.081       .  S
C83         C166   1.483       .  S
C83          C84   1.402   1_455  A
C84         C853   1.406       .  A
C84          H88   1.083       .  S
C85         C174   1.489       .  S
C85          C86   1.401       .  A
C85         C852   1.404       .  A
C86         C849   1.414       .  A
C86          H89   1.081       .  S
C90         C121   1.496       .  S
C90          C91   1.414       .  A
C90         C863   1.416       .  A
C91          C92   1.406       .  A
C91          H96   1.084       .  S
C92         C169   1.483       .  S
C92          C93   1.391       .  A
C93         C862   1.404       .  A
C93          H97   1.083       .  S
C94         C162   1.476       .  S
C94          C95   1.393       .  A
C94         C861   1.407   1_455  A
C95         C858   1.395       .  A
C95          H98   1.085       .  S
O99         C114   1.261       .  A
O99        Al299   1.918       .  S
C100        O110   1.263       .  A
C100        O485   1.268   1_545  A
C100        C130   1.484       .  S
O101        C484   1.259       .  A
O101       Al295   1.906   1_455  S
O102        C104   1.260       .  A
O102      Al1063   1.916       .  S
Al103       O111   1.913       .  S
Al103       O293   1.938       .  S
Al103      O1062   1.886   1_455  S
Al103       O881   1.948   1_455  S
Al103       O496   1.782       .  S
C104        O117   1.258       .  A
C104        C142   1.478       .  S
O105        C883   1.255       .  A
O105       Al491   1.892   1_544  S
O106        C887   1.275   1_455  A
O106       Al116   1.956       .  S
Al107       O117   1.906       .  S
Al107       O291   1.870   1_554  S
Al107       O489   1.873       .  S
Al107       O696   1.909   1_554  S
Al107      O1456   1.779       .  S
O108        C115   1.257       .  A
O108       Al308   1.888   1_554  S
O109        C502   1.253       .  A
O109       Al116   1.876       .  S
O110       Al308   1.916   1_554  S
O111        C118   1.265       .  A
O112       Al116   1.777   1_655  S
O112       Al487   1.779   1_545  S
O112      Al1451   1.772       .  S
O113        C114   1.260       .  A
O113       Al871   1.910       .  S
C114        C138   1.492       .  S
C115        O873   1.264   1_455  A
C115        C126   1.473       .  S
Al116       O300   1.891       .  S
Al116       O302   1.954       .  S
C118        O493   1.264       .  A
C118        C133   1.477       .  S
C119        O120   1.263       .  A
C119        O874   1.261       .  A
C119        C122   1.481       .  S
O120       Al683   1.915       .  S
C121        C122   1.351       .  D
C121        H891   1.087       .  S
C122        H124   1.082       .  S
H123        C889   1.087       .  S
C125        C126   1.343   1_655  D
C125        H127   1.087       .  S
C126        H896   1.084       .  S
H128        C894   1.084       .  S
C129        C456   1.497       .  S
C129        C130   1.344   1_565  D
C129        H131   1.087       .  S
C130        H516   1.084       .  S
H132        C514   1.082       .  S
C133        C134   1.348       .  D
C133        H519   1.083       .  S
C134        C447   1.498       .  S
C134        H136   1.087       .  S
H135        C517   1.085       .  S
C137        C138   1.354       .  D
C137        H139   1.087       .  S
C138        H140   1.084       .  S
C141        C142   1.349       .  D
C141        H143   1.087       .  S
C142        H144   1.084       .  S
C145        C146   1.347       .  D
C145        H147   1.087       .  S
C146        H148   1.086       .  S
C149        C150   1.339       .  D
C149        H151   1.088       .  S
C150        H152   1.086       .  S
C153        C154   1.350       .  D
C153        H155   1.086       .  S
C154        H156   1.087       .  S
C157        C158   1.345       .  D
C157        H159   1.087       .  S
C158        H160   1.087       .  S
C161        C162   1.335       .  D
C161        H163   1.086       .  S
C162        H164   1.087       .  S
C165        C166   1.346       .  D
C165        H167   1.087       .  S
C166        H168   1.087       .  S
C169        C170   1.338       .  D
C169        H171   1.087       .  S
C170        H172   1.087       .  S
C173        C174   1.344       .  D
C173        H175   1.085       .  S
C174        H176   1.087       .  S
C177        C178   1.341       .  D
C177        H179   1.088       .  S
C178        H180   1.086       .  S
C181        C182   1.353       .  D
C181        H183   1.087       .  S
C182        H184   1.086       .  S
C185        C186   1.345       .  D
C185        H187   1.087       .  S
C186        H188   1.086       .  S
C189        C190   1.349       .  D
C189        H191   1.086       .  S
C190        H192   1.086       .  S
O193        C208   1.256       .  A
O193       Al201   1.894       .  S
C194        O204   1.258       .  A
C194        O195   1.264       .  A
C194        C377   1.467       .  S
O195       Al197   1.918       .  S
O196        C198   1.257       .  A
O196       Al197   1.885       .  S
Al197       O205   1.890       .  S
Al197       O207   1.912       .  S
Al197       O206   1.788       .  S
C198        O211   1.260       .  A
C198        C374   1.462       .  S
O199        C209   1.256       .  A
O199       Al201   1.896       .  S
O200        C213   1.259       .  A
O200       Al210   1.888       .  S
Al201       O214   1.889       .  S
Al201       O211   1.892       .  S
Al201       O206   1.784       .  S
O202        C209   1.257       .  A
O202       Al210   1.902       .  S
O203        C212   1.258       .  A
O203       Al210   1.899       .  S
O204       Al210   1.885       .  S
O205        C212   1.258       .  A
O206       Al210   1.792       .  S
O207        C208   1.261       .  A
C208        C370   1.475       .  S
C209        C362   1.472       .  S
C212        C382   1.463       .  S
C213        O214   1.260       .  A
C213        C365   1.455       .  S
O215        C230   1.257       .  A
O215       Al223   1.899       .  S
C216        O226   1.261       .  A
C216        O217   1.256       .  A
C216        C357   1.487       .  S
O217       Al219   1.905       .  S
O218        C220   1.261       .  A
O218       Al219   1.902       .  S
Al219       O227   1.900       .  S
Al219       O229   1.895       .  S
Al219       O228   1.798       .  S
C220        O233   1.262       .  A
C220        C350   1.478       .  S
O221        C231   1.256       .  A
O221       Al223   1.886       .  S
O222        C235   1.260       .  A
O222       Al232   1.917       .  S
Al223       O236   1.898       .  S
Al223       O233   1.914       .  S
Al223       O228   1.804       .  S
O224        C231   1.259       .  A
O224       Al232   1.886       .  S
O225        C234   1.257       .  A
O225       Al232   1.886       .  S
O226       Al232   1.918       .  S
O227        C234   1.262       .  A
O228       Al232   1.799       .  S
O229        C230   1.257       .  A
C230        C345   1.469       .  S
C231        C338   1.466       .  S
C234        C353   1.465       .  S
C235        O236   1.258       .  A
C235        C342   1.481       .  S
C237        C333   1.505       .  S
C237        C238   1.420       .  A
C237        C242   1.413       .  A
C238        C239   1.409       .  A
C238        H243   1.081       .  S
C239        C349   1.491       .  S
C239        C240   1.399       .  A
C240        C241   1.400       .  A
C240        H244   1.081       .  S
C241        C369   1.491       .  S
C241        C242   1.407       .  A
C242        H245   1.084       .  S
C246        C329   1.481       .  S
C246        C247   1.415       .  A
C246        C251   1.401       .  A
C247        C248   1.402       .  A
C247        H252   1.082       .  S
C248        C346   1.486       .  S
C248        C249   1.401       .  A
C249        C250   1.398       .  A
C249        H253   1.083       .  S
C250        C373   1.471       .  S
C250        C251   1.396       .  A
C251        H254   1.084       .  S
C255        C710   1.492       .  S
C255        C256   1.412   1_565  A
C255        C644   1.412       .  A
C256        C257   1.400       .  A
C256        H261   1.082       .  S
C257        C378   1.479       .  S
C257        C258   1.399       .  A
C258        C643   1.393   1_545  A
C258        H262   1.084       .  S
C259        C341   1.496       .  S
C259        C642   1.405       .  A
C259        C260   1.409       .  A
C260        C639   1.418       .  A
C260        H263   1.082       .  S
C264        C705   1.475       .  S
C264        C265   1.397       .  A
C264        C653   1.412       .  A
C265        C266   1.393       .  A
C265        H270   1.085       .  S
C266        C337   1.473       .  S
C266        C267   1.402       .  A
C267        C652   1.408       .  A
C267        H271   1.082       .  S
C268        C381   1.479       .  S
C268        C651   1.401       .  A
C268        C269   1.396       .  A
C269        C648   1.403       .  A
C269        H272   1.085       .  S
C273        C317   1.490       .  S
C273        C274   1.419   1_655  A
C273       C1046   1.400       .  A
C274        C275   1.416       .  A
C274        H279   1.082       .  S
C275        C358   1.497       .  S
C275        C276   1.404       .  A
C276       C1045   1.405   1_455  A
C276        H280   1.082       .  S
C277        C366   1.476       .  S
C277       C1044   1.397       .  A
C277        C278   1.393       .  A
C278       C1041   1.413       .  A
C278        H281   1.079       .  S
C282        C313   1.486       .  S
C282        C283   1.415       .  A
C282       C1055   1.404       .  A
C283        C284   1.404       .  A
C283        H288   1.082       .  S
C284        C361   1.483       .  S
C284        C285   1.399       .  A
C285       C1054   1.400       .  A
C285        H289   1.082       .  S
C286        C354   1.480       .  S
C286       C1053   1.405       .  A
C286        C287   1.393       .  A
C287       C1050   1.400       .  A
C287        H290   1.085       .  S
O291        C306   1.258       .  A
C292        O302   1.272   1_565  A
C292        O677   1.255       .  A
C292        C322   1.479       .  S
O293        C676   1.270       .  A
O294        C296   1.267       .  A
O294       Al871   1.924       .  S
Al295       O870   1.897       .  S
Al295       O303   1.888   1_654  S
Al295      O1073   1.916   1_554  S
Al295       O688   1.780       .  S
C296        O309   1.265       .  A
C296        C334   1.490       .  S
O297       C1075   1.259       .  A
O297       Al683   1.905       .  S
O298       C1079   1.265   1_455  A
O298       Al308   1.918       .  S
Al299       O681   1.905       .  S
Al299       O504   1.931       .  S
Al299       O309   1.921       .  S
Al299      O1264   1.786       .  S
O300        C307   1.254       .  A
O301        C694   1.261       .  A
O301       Al308   1.897       .  S
O303        C310   1.261       .  A
O304       Al679   1.786   1_546  S
O304      Al1259   1.785   1_456  S
O304       Al308   1.777       .  S
O305        C306   1.273       .  A
O305      Al1063   1.946   1_556  S
C306        C330   1.468       .  S
C307       O1065   1.267   1_455  A
C307        C318   1.485       .  S
C310        O685   1.272       .  A
C310        C325   1.483       .  S
C311       O1066   1.273       .  A
C311        O312   1.258       .  A
C311        C314   1.474       .  S
O312       Al491   1.876   1_545  S
C313        C314   1.342       .  D
C313       H1083   1.087       .  S
C314        H316   1.086       .  S
H315       C1081   1.088       .  S
C317        C318   1.343   1_655  D
C317        H319   1.087       .  S
C318       H1088   1.086       .  S
H320       C1086   1.082       .  S
C321        C648   1.494       .  S
C321        C322   1.340   1_545  D
C321        H323   1.087       .  S
C322        H708   1.084       .  S
H324        C706   1.086       .  S
C325        C326   1.345       .  D
C325        H711   1.085       .  S
C326        C639   1.493       .  S
C326        H328   1.087       .  S
H327        C709   1.085       .  S
C329        C330   1.339       .  D
C329        H331   1.087       .  S
C330        H332   1.085       .  S
C333        C334   1.351       .  D
C333        H335   1.087       .  S
C334        H336   1.083       .  S
C337        C338   1.340       .  D
C337        H339   1.088       .  S
C338        H340   1.086       .  S
C341        C342   1.350       .  D
C341        H343   1.086       .  S
C342        H344   1.087       .  S
C345        C346   1.345       .  D
C345        H347   1.087       .  S
C346        H348   1.086       .  S
C349        C350   1.352       .  D
C349        H351   1.086       .  S
C350        H352   1.087       .  S
C353        C354   1.338       .  D
C353        H355   1.086       .  S
C354        H356   1.087       .  S
C357        C358   1.357       .  D
C357        H359   1.086       .  S
C358        H360   1.086       .  S
C361        C362   1.348       .  D
C361        H363   1.087       .  S
C362        H364   1.087       .  S
C365        C366   1.338       .  D
C365        H367   1.087       .  S
C366        H368   1.087       .  S
C369        C370   1.351       .  D
C369        H371   1.087       .  S
C370        H372   1.086       .  S
C373        C374   1.342       .  D
C373        H375   1.087       .  S
C374        H376   1.087       .  S
C377        C378   1.343       .  D
C377        H379   1.087       .  S
C378        H380   1.087       .  S
C381        C382   1.341       .  D
C381        H383   1.087       .  S
C382        H384   1.086       .  S
O385        C400   1.260       .  A
O385       Al393   1.890       .  S
C386        O396   1.257       .  A
C386        O387   1.258       .  A
C386        C569   1.470       .  S
O387       Al389   1.892       .  S
O388        C390   1.258       .  A
O388       Al389   1.902       .  S
Al389       O397   1.894       .  S
Al389       O399   1.894       .  S
Al389       O398   1.794       .  S
C390        O403   1.257       .  A
C390        C566   1.472       .  S
O391        C401   1.259       .  A
O391       Al393   1.894       .  S
O392        C405   1.258       .  A
O392       Al402   1.905       .  S
Al393       O406   1.887       .  S
Al393       O403   1.893       .  S
Al393       O398   1.794       .  S
O394        C401   1.260       .  A
O394       Al402   1.890       .  S
O395        C404   1.257       .  A
O395       Al402   1.893       .  S
O396       Al402   1.893       .  S
O397        C404   1.259       .  A
O398       Al402   1.794       .  S
O399        C400   1.259       .  A
C400        C562   1.463       .  S
C401        C554   1.466       .  S
C404        C574   1.468       .  S
C405        O406   1.255       .  A
C405        C557   1.468       .  S
O407        C422   1.257       .  A
O407       Al415   1.891       .  S
C408        O418   1.260       .  A
C408        O409   1.262       .  A
C408        C549   1.472       .  S
O409       Al411   1.899       .  S
O410        C412   1.258       .  A
O410       Al411   1.896       .  S
Al411       O419   1.913       .  S
Al411       O421   1.900       .  S
Al411       O420   1.793       .  S
C412        O425   1.260       .  A
C412        C542   1.474       .  S
O413        C423   1.258       .  A
O413       Al415   1.900       .  S
O414        C427   1.260       .  A
O414       Al424   1.888       .  S
Al415       O428   1.894       .  S
Al415       O425   1.907       .  S
Al415       O420   1.799       .  S
O416        C423   1.261       .  A
O416       Al424   1.912       .  S
O417        C426   1.259       .  A
O417       Al424   1.905       .  S
O418       Al424   1.899       .  S
O419        C426   1.260       .  A
O420       Al424   1.791       .  S
O421        C422   1.259       .  A
C422        C537   1.468       .  S
C423        C530   1.480       .  S
C426        C545   1.478       .  S
C427        O428   1.258       .  A
C427        C534   1.461       .  S
C429        C525   1.482       .  S
C429        C430   1.415       .  A
C429        C434   1.400       .  A
C430        C431   1.404       .  A
C430        H435   1.083       .  S
C431        C541   1.486       .  S
C431        C432   1.400       .  A
C432        C433   1.403       .  A
C432        H436   1.081       .  S
C433        C561   1.477       .  S
C433        C434   1.397       .  A
C434        H437   1.085       .  S
C438        C521   1.489       .  S
C438        C439   1.413       .  A
C438        C443   1.410       .  A
C439        C440   1.405       .  A
C439        H444   1.081       .  S
C440        C538   1.484       .  S
C440        C441   1.402       .  A
C441        C442   1.396       .  A
C441        H445   1.082       .  S
C442        C565   1.481       .  S
C442        C443   1.401       .  A
C443        H446   1.084       .  S
C447        C448   1.413       .  A
C448        C449   1.402       .  A
C448        H453   1.080       .  S
C449        C570   1.481       .  S
C449        C450   1.400       .  A
C450        H454   1.083       .  S
C451        C533   1.474       .  S
C451        C452   1.391       .  A
C452        H455   1.085       .  S
C456        C457   1.404       .  A
C457        C458   1.401       .  A
C457        H462   1.084       .  S
C458        C529   1.486       .  S
C458        C459   1.405   1_565  A
C459        H463   1.082       .  S
C460        C573   1.482       .  S
C460        C461   1.400       .  A
C461        H464   1.084       .  S
C465        C509   1.490       .  S
C465        C466   1.400       .  A
C465       C1238   1.419   1_455  A
C466        C467   1.397       .  A
C466        H471   1.085       .  S
C467        C550   1.477       .  S
C467        C468   1.402       .  A
C468       C1237   1.408   1_455  A
C468        H472   1.083   1_455  S
C469        C558   1.484       .  S
C469       C1236   1.404       .  A
C469        C470   1.400       .  A
C470       C1233   1.412       .  A
C470        H473   1.082       .  S
C474        C505   1.491       .  S
C474        C475   1.404       .  A
C474       C1247   1.419       .  A
C475        C476   1.395       .  A
C475        H480   1.085       .  S
C476        C553   1.476       .  S
C476        C477   1.395       .  A
C477       C1246   1.403       .  A
C477        H481   1.082       .  S
C478        C546   1.495       .  S
C478       C1245   1.406   1_455  A
C478        C479   1.409       .  A
C479       C1242   1.418   1_455  A
C479        H482   1.082       .  S
O483        C498   1.258       .  A
O483       Al683   1.908   1_565  S
C484        O494   1.260       .  A
C484        C514   1.471       .  S
O485       Al679   1.925       .  S
O486        C488   1.273       .  A
O486      Al1447   1.951   1_554  S
Al487       O677   1.871   1_655  S
Al487      O1446   1.926       .  S
Al487       O495   1.921   1_655  S
Al487      O1265   1.906       .  S
C488        O501   1.258       .  A
C488        C526   1.471       .  S
O489       C1267   1.259       .  A
O490       C1271   1.255       .  A
O490       Al500   1.871       .  S
Al491       O675   1.891       .  S
Al491       O501   1.872   1_556  S
Al491      O1072   1.783       .  S
O492        C499   1.273   1_455  A
O492       Al692   1.962       .  S
O493       Al500   1.918       .  S
O494       Al692   1.896       .  S
O495        C502   1.265   1_565  A
O496      Al1067   1.776   1_455  S
O496       Al500   1.773       .  S
O497        C498   1.258       .  A
O497      Al1255   1.898       .  S
C498        C522   1.482       .  S
C499       O1257   1.253       .  A
C499        C510   1.476       .  S
Al500       O684   1.926       .  S
Al500       O686   1.880       .  S
C502        C517   1.468       .  S
C503       O1258   1.259       .  A
C503        O504   1.268       .  A
C503        C506   1.484       .  S
C505        C506   1.344       .  D
C505       H1275   1.088       .  S
C506        H508   1.085       .  S
H507       C1273   1.087       .  S
C509        C510   1.339   1_455  D
C509        H511   1.087       .  S
C510       H1280   1.086       .  S
H512       C1278   1.086       .  S
C513        C514   1.344       .  D
C513        H515   1.087       .  S
C517        C518   1.338   1_545  D
C518        H520   1.088       .  S
C521        C522   1.350       .  D
C521        H523   1.087       .  S
C522        H524   1.084       .  S
C525        C526   1.339       .  D
C525        H527   1.087       .  S
C526        H528   1.086       .  S
C529        C530   1.346       .  D
C529        H531   1.087       .  S
C530        H532   1.086       .  S
C533        C534   1.338       .  D
C533        H535   1.087       .  S
C534        H536   1.086       .  S
C537        C538   1.347       .  D
C537        H539   1.086       .  S
C538        H540   1.087       .  S
C541        C542   1.349       .  D
C541        H543   1.087       .  S
C542        H544   1.087       .  S
C545        C546   1.349       .  D
C545        H547   1.086       .  S
C546        H548   1.086       .  S
C549        C550   1.344       .  D
C549        H551   1.086       .  S
C550        H552   1.087       .  S
C553        C554   1.345       .  D
C553        H555   1.087       .  S
C554        H556   1.086       .  S
C557        C558   1.342       .  D
C557        H559   1.087       .  S
C558        H560   1.087       .  S
C561        C562   1.340       .  D
C561        H563   1.087       .  S
C562        H564   1.086       .  S
C565        C566   1.349       .  D
C565        H567   1.087       .  S
C566        H568   1.087       .  S
C569        C570   1.346       .  D
C569        H571   1.086       .  S
C570        H572   1.087       .  S
C573        C574   1.343       .  D
C573        H575   1.087       .  S
C574        H576   1.085       .  S
O577        C592   1.255       .  A
O577       Al585   1.878       .  S
C578        O588   1.261       .  A
C578        O579   1.269       .  A
C578        C761   1.473       .  S
O579       Al581   1.930       .  S
O580        C582   1.257       .  A
O580       Al581   1.901       .  S
Al581       O589   1.912       .  S
Al581       O591   1.938       .  S
Al581       O590   1.794       .  S
C582        O595   1.258       .  A
C582        C758   1.474       .  S
O583        C593   1.258       .  A
O583       Al585   1.899       .  S
O584        C597   1.260       .  A
O584       Al594   1.894       .  S
Al585       O598   1.889       .  S
Al585       O595   1.891       .  S
Al585       O590   1.786       .  S
O586        C593   1.261       .  A
O586       Al594   1.917       .  S
O587        C596   1.256       .  A
O587       Al594   1.891       .  S
O588       Al594   1.887       .  S
O589        C596   1.260       .  A
O590       Al594   1.791       .  S
O591        C592   1.269       .  A
C592        C754   1.479       .  S
C593        C746   1.476       .  S
C596        C766   1.472       .  S
C597        O598   1.258       .  A
C597        C749   1.455       .  S
O599        C614   1.260       .  A
O599       Al607   1.912       .  S
C600        O610   1.254       .  A
C600        O601   1.257       .  A
C600        C741   1.465       .  S
O601       Al603   1.894       .  S
O602        C604   1.260       .  A
O602       Al603   1.880       .  S
Al603       O611   1.897       .  S
Al603       O613   1.891       .  S
Al603       O612   1.790       .  S
C604        O617   1.268       .  A
C604        C734   1.469       .  S
O605        C615   1.258       .  A
O605       Al607   1.893       .  S
O606        C619   1.254       .  A
O606       Al616   1.874       .  S
Al607       O620   1.932       .  S
Al607       O617   1.935       .  S
Al607       O612   1.791       .  S
O608        C615   1.261       .  A
O608       Al616   1.923       .  S
O609        C618   1.267       .  A
O609       Al616   1.918       .  S
O610       Al616   1.893       .  S
O611        C618   1.261       .  A
O612       Al616   1.792       .  S
O613        C614   1.254       .  A
C614        C729   1.472       .  S
C615        C722   1.481       .  S
C618        C737   1.469       .  S
C619        O620   1.268       .  A
C619        C726   1.478       .  S
C621        C717   1.497       .  S
C621        C622   1.415       .  A
C621        C626   1.414       .  A
C622        C623   1.399       .  A
C622        H627   1.082       .  S
C623        C733   1.482       .  S
C623        C624   1.400       .  A
C624        C625   1.395       .  A
C624        H628   1.085       .  S
C625        C753   1.488       .  S
C625        C626   1.412       .  A
C626        H629   1.083       .  S
C630        C713   1.489       .  S
C630        C631   1.413       .  A
C630        C635   1.401       .  A
C631        C632   1.404       .  A
C631        H636   1.081       .  S
C632        C730   1.491       .  S
C632        C633   1.408       .  A
C633        C634   1.404       .  A
C633        H637   1.081       .  S
C634        C757   1.480       .  S
C634        C635   1.399       .  A
C635        H638   1.085       .  S
C639        C640   1.407       .  A
C640        C641   1.400       .  A
C640        H645   1.084       .  S
C641        C762   1.483       .  S
C641        C642   1.402       .  A
C642        H646   1.083       .  S
C643        C725   1.485       .  S
C643        C644   1.411       .  A
C644        H647   1.083       .  S
C648        C649   1.422   1_545  A
C649        C650   1.411       .  A
C649        H654   1.081       .  S
C650        C721   1.495       .  S
C650        C651   1.400   1_565  A
C651        H655   1.082   1_545  S
C652        C765   1.489       .  S
C652        C653   1.404       .  A
C653        H656   1.083       .  S
C657        C701   1.481       .  S
C657        C658   1.402       .  A
C657       C1430   1.415   1_455  A
C658        C659   1.393       .  A
C658        H663   1.085       .  S
C659        C742   1.472       .  S
C659        C660   1.398   1_455  A
C660       C1429   1.404       .  A
C660        H664   1.083       .  S
C661        C750   1.479       .  S
C661       C1428   1.398       .  A
C661        C662   1.394       .  A
C662       C1425   1.413       .  A
C662        H665   1.078       .  S
C666        C697   1.499       .  S
C666        C667   1.414       .  A
C666       C1439   1.409       .  A
C667        C668   1.403       .  A
C667        H672   1.081       .  S
C668        C745   1.485       .  S
C668        C669   1.402       .  A
C669       C1438   1.404       .  A
C669        H673   1.082       .  S
C670        C738   1.490       .  S
C670       C1437   1.401   1_455  A
C670        C671   1.409       .  A
C671       C1434   1.418   1_455  A
C671        H674   1.082       .  S
O675        C690   1.254       .  A
C676        O686   1.258       .  A
C676        C706   1.468       .  S
O678        C680   1.265       .  A
O678      Al1255   1.917       .  S
Al679      O1254   1.922   1_455  S
Al679       O687   1.931   1_554  S
Al679      O1457   1.920   1_454  S
C680        O693   1.263       .  A
C680        C718   1.480       .  S
O681       C1459   1.259       .  A
O682       C1463   1.255       .  A
O682       Al692   1.890   1_556  S
Al683       O693   1.909   1_545  S
Al683       O880   1.789       .  S
O684        C691   1.265   1_455  A
O685       Al692   1.950   1_556  S
O687        C694   1.265   1_565  A
O688       Al875   1.779   1_554  S
O688       Al692   1.783   1_655  S
O689        C690   1.262       .  A
O689      Al1447   1.917       .  S
C690        C714   1.472       .  S
C691       O1449   1.255       .  A
C691        C702   1.473       .  S
C694        C709   1.478       .  S
C695       O1450   1.261       .  A
C695        O696   1.258       .  A
C695        C698   1.480       .  S
C697        C698   1.347       .  D
C697       H1467   1.087       .  S
C698        H700   1.083       .  S
H699       C1465   1.088       .  S
C701        C702   1.341   1_455  D
C701        H703   1.088       .  S
C702       H1472   1.085       .  S
H704       C1470   1.080       .  S
C705        C706   1.338       .  D
C705        H707   1.087       .  S
C709        C710   1.350   1_545  D
C710        H712   1.087       .  S
C713        C714   1.340       .  D
C713        H715   1.087       .  S
C714        H716   1.084       .  S
C717        C718   1.349       .  D
C717        H719   1.087       .  S
C718        H720   1.084       .  S
C721        C722   1.352       .  D
C721        H723   1.086       .  S
C722        H724   1.087       .  S
C725        C726   1.338       .  D
C725        H727   1.088       .  S
C726        H728   1.086       .  S
C729        C730   1.344       .  D
C729        H731   1.086       .  S
C730        H732   1.087       .  S
C733        C734   1.343       .  D
C733        H735   1.086       .  S
C734        H736   1.088       .  S
C737        C738   1.350       .  D
C737        H739   1.086       .  S
C738        H740   1.086       .  S
C741        C742   1.342       .  D
C741        H743   1.087       .  S
C742        H744   1.087       .  S
C745        C746   1.347       .  D
C745        H747   1.087       .  S
C746        H748   1.087       .  S
C749        C750   1.338       .  D
C749        H751   1.086       .  S
C750        H752   1.087       .  S
C753        C754   1.339       .  D
C753        H755   1.088       .  S
C754        H756   1.086       .  S
C757        C758   1.346       .  D
C757        H759   1.087       .  S
C758        H760   1.086       .  S
C761        C762   1.344       .  D
C761        H763   1.087       .  S
C762        H764   1.087       .  S
C765        C766   1.345       .  D
C765        H767   1.086       .  S
C766        H768   1.086       .  S
O769        C784   1.258       .  A
O769       Al777   1.890       .  S
C770        O780   1.260       .  A
C770        O771   1.260       .  A
C770        C953   1.473       .  S
O771       Al773   1.903       .  S
O772        C774   1.258       .  A
O772       Al773   1.903       .  S
Al773       O781   1.903       .  S
Al773       O783   1.907       .  S
Al773       O782   1.800       .  S
C774        O787   1.257       .  A
C774        C950   1.468       .  S
O775        C785   1.258       .  A
O775       Al777   1.892       .  S
O776        C789   1.261       .  A
O776       Al786   1.909       .  S
Al777       O790   1.884       .  S
Al777       O787   1.880       .  S
Al777       O782   1.788       .  S
O778        C785   1.263       .  A
O778       Al786   1.927       .  S
O779        C788   1.262       .  A
O779       Al786   1.909       .  S
O780       Al786   1.899       .  S
O781        C788   1.260       .  A
O782       Al786   1.791       .  S
O783        C784   1.261       .  A
C784        C946   1.469       .  S
C785        C938   1.478       .  S
C788        C958   1.476       .  S
C789        O790   1.255       .  A
C789        C941   1.467       .  S
O791        C806   1.258       .  A
O791       Al799   1.913       .  S
C792        O802   1.256       .  A
C792        O793   1.261       .  A
C792        C933   1.467       .  S
O793       Al795   1.908       .  S
O794        C796   1.260       .  A
O794       Al795   1.881       .  S
Al795       O803   1.904       .  S
Al795       O805   1.888       .  S
Al795       O804   1.788       .  S
C796        O809   1.268       .  A
C796        C926   1.469       .  S
O797        C807   1.257       .  A
O797       Al799   1.902       .  S
O798        C811   1.254       .  A
O798       Al808   1.866       .  S
Al799       O812   1.926       .  S
Al799       O809   1.929       .  S
Al799       O804   1.793       .  S
O800        C807   1.257       .  A
O800       Al808   1.899       .  S
O801        C810   1.260       .  A
O801       Al808   1.900       .  S
O802       Al808   1.890       .  S
O803        C810   1.260       .  A
O804       Al808   1.789       .  S
O805        C806   1.255       .  A
C806        C921   1.472       .  S
C807        C914   1.477       .  S
C810        C929   1.462       .  S
C811        O812   1.269       .  A
C811        C918   1.468       .  S
C813        C909   1.486       .  S
C813        C814   1.414       .  A
C813        C818   1.407       .  A
C814        C815   1.401       .  A
C814        H819   1.082       .  S
C815        C925   1.483       .  S
C815        C816   1.400       .  A
C816        C817   1.400       .  A
C816        H820   1.083       .  S
C817        C945   1.483       .  S
C817        C818   1.400       .  A
C818        H821   1.084       .  S
C822        C905   1.483       .  S
C822        C823   1.416       .  A
C822        C827   1.399       .  A
C823        C824   1.407       .  A
C823        H828   1.083       .  S
C824        C922   1.492       .  S
C824        C825   1.406       .  A
C825        C826   1.400       .  A
C825        H829   1.082       .  S
C826        C949   1.475       .  S
C826        C827   1.396       .  A
C827        H830   1.085       .  S
C831       C1286   1.494       .  S
C831        C832   1.417   1_565  A
C831       C1220   1.406       .  A
C832        C833   1.403       .  A
C832        H837   1.081       .  S
C833        C954   1.484       .  S
C833        C834   1.397   1_545  A
C834       C1219   1.401       .  A
C834        H838   1.081       .  S
C835        C917   1.477       .  S
C835       C1218   1.392       .  A
C835        C836   1.407       .  A
C836       C1215   1.405       .  A
C836        H839   1.083       .  S
C840       C1281   1.501       .  S
C840        C841   1.408       .  A
C840       C1229   1.420       .  A
C841        C842   1.402       .  A
C841        H846   1.084       .  S
C842        C913   1.487       .  S
C842        C843   1.402       .  A
C843       C1228   1.406       .  A
C843        H847   1.081       .  S
C844        C957   1.493       .  S
C844       C1227   1.403       .  A
C844        C845   1.405       .  A
C845       C1224   1.412       .  A
C845        H848   1.084       .  S
C849        C893   1.484       .  S
C849        C850   1.402       .  A
C850        C851   1.397       .  A
C850        H855   1.084       .  S
C851        C934   1.474       .  S
C851        C852   1.402       .  A
C852        H856   1.081       .  S
C853        C942   1.484       .  S
C853        C854   1.398       .  A
C854        H857   1.085       .  S
C858        C889   1.475       .  S
C858        C859   1.415   1_455  A
C859        C860   1.403       .  A
C859        H864   1.083       .  S
C860        C937   1.488       .  S
C860        C861   1.402       .  A
C861        H865   1.082       .  S
C862        C930   1.488       .  S
C862        C863   1.403       .  A
C863        H866   1.079       .  S
O867        C882   1.253       .  A
O867      Al1067   1.871       .  S
C868        O878   1.268   1_565  A
C868       O1253   1.260       .  A
C868        C898   1.494       .  S
O869       C1252   1.269       .  A
O869      Al1063   1.947       .  S
O870        C872   1.263       .  A
Al871      O1061   1.906       .  S
Al871       O879   1.936       .  S
Al871      O1264   1.797       .  S
C872        O885   1.264       .  A
C872        C910   1.474       .  S
O873      Al1259   1.921       .  S
O874       Al884   1.901       .  S
Al875      O1059   1.888       .  S
Al875      O1257   1.867   1_556  S
Al875      O1464   1.919       .  S
Al875       O885   1.925   1_556  S
O876        C883   1.260       .  A
O876      Al1076   1.906   1_554  S
O877       C1270   1.258       .  A
O877       Al884   1.892       .  S
O878      Al1076   1.944   1_554  S
O879        C886   1.268       .  A
O880      Al1255   1.799   1_545  S
O880       Al884   1.795       .  S
O881        C882   1.269       .  A
C882        C906   1.471       .  S
C883        C894   1.465       .  S
Al884      O1068   1.914       .  S
Al884      O1070   1.916       .  S
C886       O1261   1.257       .  A
C886        C901   1.477       .  S
C887        O888   1.255       .  A
C887        C890   1.463       .  S
O888      Al1451   1.858       .  S
C889        C890   1.334   1_455  D
C890        H892   1.086       .  S
C893        C894   1.339       .  D
C893        H895   1.087       .  S
C897       C1224   1.505       .  S
C897        C898   1.351   1_545  D
C897        H899   1.087       .  S
C898       H1284   1.084       .  S
H900       C1282   1.084       .  S
C901        C902   1.341       .  D
C901       H1287   1.086       .  S
C902       C1215   1.494       .  S
C902        H904   1.087       .  S
H903       C1285   1.084       .  S
C905        C906   1.339       .  D
C905        H907   1.088       .  S
C906        H908   1.086       .  S
C909        C910   1.344       .  D
C909        H911   1.087       .  S
C910        H912   1.084       .  S
C913        C914   1.349       .  D
C913        H915   1.087       .  S
C914        H916   1.086       .  S
C917        C918   1.335       .  D
C917        H919   1.088       .  S
C918        H920   1.086       .  S
C921        C922   1.347       .  D
C921        H923   1.087       .  S
C922        H924   1.086       .  S
C925        C926   1.344       .  D
C925        H927   1.086       .  S
C926        H928   1.088       .  S
C929        C930   1.342       .  D
C929        H931   1.085       .  S
C930        H932   1.087       .  S
C933        C934   1.342       .  D
C933        H935   1.087       .  S
C934        H936   1.087       .  S
C937        C938   1.347       .  D
C937        H939   1.086       .  S
C938        H940   1.087       .  S
C941        C942   1.340       .  D
C941        H943   1.086       .  S
C942        H944   1.087       .  S
C945        C946   1.346       .  D
C945        H947   1.087       .  S
C946        H948   1.086       .  S
C949        C950   1.345       .  D
C949        H951   1.088       .  S
C950        H952   1.086       .  S
C953        C954   1.349       .  D
C953        H955   1.087       .  S
C954        H956   1.087       .  S
C957        C958   1.349       .  D
C957        H959   1.087       .  S
C958        H960   1.085       .  S
O961        C976   1.258       .  A
O961       Al969   1.913       .  S
C962        O972   1.263       .  A
C962        O963   1.263       .  A
C962       C1145   1.484       .  S
O963       Al965   1.919       .  S
O964        C966   1.258       .  A
O964       Al965   1.895       .  S
Al965       O973   1.901       .  S
Al965       O975   1.917       .  S
Al965       O974   1.799       .  S
C966        O979   1.259       .  A
C966       C1142   1.470       .  S
O967        C977   1.258       .  A
O967       Al969   1.906       .  S
O968        C981   1.262       .  A
O968       Al978   1.900       .  S
Al969       O982   1.889       .  S
Al969       O979   1.888       .  S
Al969       O974   1.802       .  S
O970        C977   1.256       .  A
O970       Al978   1.897       .  S
O971        C980   1.254       .  A
O971       Al978   1.886       .  S
O972       Al978   1.910       .  S
O973        C980   1.261       .  A
O974       Al978   1.799       .  S
O975        C976   1.262       .  A
C976       C1138   1.488       .  S
C977       C1130   1.479       .  S
C980       C1150   1.468       .  S
C981        O982   1.257       .  A
C981       C1133   1.467       .  S
O983        C998   1.264       .  A
O983       Al991   1.929       .  S
C984        O994   1.276       .  A
C984        O985   1.254       .  A
C984       C1125   1.487       .  S
O985       Al987   1.871       .  S
O986        C988   1.260       .  A
O986       Al987   1.896       .  S
Al987       O995   1.894       .  S
Al987       O997   1.882       .  S
Al987       O996   1.784       .  S
C988       O1001   1.264       .  A
C988       C1118   1.465       .  S
O989        C999   1.260       .  A
O989       Al991   1.906       .  S
O990       C1003   1.271       .  A
O990      Al1000   1.952       .  S
Al991      O1004   1.891       .  S
Al991      O1001   1.911       .  S
Al991       O996   1.784       .  S
O992        C999   1.260       .  A
O992      Al1000   1.904       .  S
O993       C1002   1.254       .  A
O993      Al1000   1.886       .  S
O994      Al1000   1.965       .  S
O995       C1002   1.257       .  A
O996      Al1000   1.789       .  S
O997        C998   1.255       .  A
C998       C1113   1.468       .  S
C999       C1106   1.475       .  S
C1002      C1121   1.465       .  S
C1003      O1004   1.262       .  A
C1003      C1110   1.482       .  S
C1005      C1101   1.494       .  S
C1005      C1006   1.405       .  A
C1005      C1010   1.422       .  A
C1006      C1007   1.397       .  A
C1006      H1011   1.084       .  S
C1007      C1117   1.486       .  S
C1007      C1008   1.404       .  A
C1008      C1009   1.403       .  A
C1008      H1012   1.082       .  S
C1009      C1137   1.502       .  S
C1009      C1010   1.414       .  A
C1010      H1013   1.082       .  S
C1014      C1097   1.476       .  S
C1014      C1015   1.408       .  A
C1014      C1019   1.401       .  A
C1015      C1016   1.399       .  A
C1015      H1020   1.082       .  S
C1016      C1114   1.477       .  S
C1016      C1017   1.405       .  A
C1017      C1018   1.403       .  A
C1017      H1021   1.083       .  S
C1018      C1141   1.477       .  S
C1018      C1019   1.398       .  A
C1019      H1022   1.085       .  S
C1023      C1478   1.499       .  S
C1023      C1024   1.419   1_565  A
C1023      C1412   1.407       .  A
C1024      C1025   1.411       .  A
C1024      H1029   1.081       .  S
C1025      C1146   1.493       .  S
C1025      C1026   1.404   1_545  A
C1026      C1411   1.403       .  A
C1026      H1030   1.083   1_565  S
C1027      C1109   1.496       .  S
C1027      C1410   1.405       .  A
C1027      C1028   1.412       .  A
C1028      C1407   1.421       .  A
C1028      H1031   1.081       .  S
C1032      C1473   1.487       .  S
C1032      C1033   1.416       .  A
C1032      C1421   1.402       .  A
C1033      C1034   1.406       .  A
C1033      H1038   1.081       .  S
C1034      C1105   1.493       .  S
C1034      C1035   1.405       .  A
C1035      C1420   1.404       .  A
C1035      H1039   1.081       .  S
C1036      C1149   1.481       .  S
C1036      C1419   1.409       .  A
C1036      C1037   1.392       .  A
C1037      C1416   1.397       .  A
C1037      H1040   1.086       .  S
C1041      C1085   1.502       .  S
C1041      C1042   1.424       .  A
C1042      C1043   1.418       .  A
C1042      H1047   1.083       .  S
C1043      C1126   1.492       .  S
C1043      C1044   1.389       .  A
C1044      H1048   1.084       .  S
C1045      C1134   1.481       .  S
C1045      C1046   1.395       .  A
C1046      H1049   1.085       .  S
C1050      C1081   1.481       .  S
C1050      C1051   1.413   1_455  A
C1051      C1052   1.408       .  A
C1051      H1056   1.082       .  S
C1052      C1129   1.487       .  S
C1052      C1053   1.404   1_655  A
C1053      H1057   1.082   1_455  S
C1054      C1122   1.477       .  S
C1054      C1055   1.400       .  A
C1055      H1058   1.084       .  S
O1059      C1074   1.257       .  A
C1060      O1070   1.267   1_565  A
C1060      O1445   1.256       .  A
C1060      C1090   1.476       .  S
O1061      C1444   1.260       .  A
O1062      C1064   1.258       .  A
Al1063     O1071   1.882   1_554  S
Al1063     O1456   1.789       .  S
C1064      O1077   1.273       .  A
C1064      C1102   1.486       .  S
O1065     Al1451   1.948       .  S
O1066     Al1076   1.955       .  S
Al1067     O1449   1.885       .  S
Al1067     O1272   1.963       .  S
Al1067     O1077   1.960       .  S
O1068      C1075   1.257       .  A
O1069      C1462   1.259       .  A
O1069     Al1076   1.889       .  S
O1071      C1078   1.255       .  A
O1072     Al1447   1.784       .  S
O1072     Al1076   1.784   1_565  S
O1073      C1074   1.264       .  A
C1074      C1098   1.468       .  S
C1075      C1086   1.480       .  S
C1078      O1453   1.267       .  A
C1078      C1093   1.481       .  S
C1079      O1080   1.256       .  A
C1079      C1082   1.475       .  S
O1080     Al1259   1.890   1_556  S
C1081      C1082   1.342   1_455  D
C1082      H1084   1.085       .  S
C1085      C1086   1.357       .  D
C1085      H1087   1.087       .  S
C1089      C1416   1.489       .  S
C1089      C1090   1.337   1_545  D
C1089      H1091   1.089       .  S
C1090      H1476   1.086       .  S
H1092      C1474   1.084       .  S
C1093      C1094   1.342       .  D
C1093      H1479   1.084       .  S
C1094      C1407   1.494       .  S
C1094      H1096   1.088       .  S
H1095      C1477   1.084       .  S
C1097      C1098   1.342       .  D
C1097      H1099   1.087       .  S
C1098      H1100   1.085       .  S
C1101      C1102   1.343       .  D
C1101      H1103   1.087       .  S
C1102      H1104   1.086       .  S
C1105      C1106   1.349       .  D
C1105      H1107   1.087       .  S
C1106      H1108   1.086       .  S
C1109      C1110   1.350       .  D
C1109      H1111   1.086       .  S
C1110      H1112   1.087       .  S
C1113      C1114   1.340       .  D
C1113      H1115   1.087       .  S
C1114      H1116   1.087       .  S
C1117      C1118   1.341       .  D
C1117      H1119   1.087       .  S
C1118      H1120   1.086       .  S
C1121      C1122   1.344       .  D
C1121      H1123   1.086       .  S
C1122      H1124   1.087       .  S
C1125      C1126   1.336       .  D
C1125      H1127   1.086       .  S
C1126      H1128   1.088       .  S
C1129      C1130   1.351       .  D
C1129      H1131   1.087       .  S
C1130      H1132   1.086       .  S
C1133      C1134   1.339       .  D
C1133      H1135   1.086       .  S
C1134      H1136   1.087       .  S
C1137      C1138   1.356       .  D
C1137      H1139   1.086       .  S
C1138      H1140   1.087       .  S
C1141      C1142   1.343       .  D
C1141      H1143   1.088       .  S
C1142      H1144   1.086       .  S
C1145      C1146   1.352       .  D
C1145      H1147   1.086       .  S
C1146      H1148   1.086       .  S
C1149      C1150   1.338       .  D
C1149      H1151   1.089       .  S
C1150      H1152   1.086       .  S
O1153      C1168   1.260       .  A
O1153     Al1161   1.891       .  S
C1154      O1164   1.259       .  A
C1154      O1155   1.258       .  A
C1154      C1337   1.472       .  S
O1155     Al1157   1.898       .  S
O1156      C1158   1.262       .  A
O1156     Al1157   1.916       .  S
Al1157     O1165   1.919       .  S
Al1157     O1167   1.893       .  S
Al1157     O1166   1.805       .  S
C1158      O1171   1.257       .  A
C1158      C1334   1.483       .  S
O1159      C1169   1.258       .  A
O1159     Al1161   1.895       .  S
O1160      C1173   1.262       .  A
O1160     Al1170   1.923       .  S
Al1161     O1174   1.895       .  S
Al1161     O1171   1.900       .  S
Al1161     O1166   1.797       .  S
O1162      C1169   1.260       .  A
O1162     Al1170   1.900       .  S
O1163      C1172   1.260       .  A
O1163     Al1170   1.903       .  S
O1164     Al1170   1.899       .  S
O1165      C1172   1.262       .  A
O1166     Al1170   1.797       .  S
O1167      C1168   1.258       .  A
C1168      C1330   1.466       .  S
C1169      C1322   1.471       .  S
C1172      C1342   1.483       .  S
C1173      O1174   1.258       .  A
C1173      C1325   1.480       .  S
O1175      C1190   1.261       .  A
O1175     Al1183   1.912       .  S
C1176      O1186   1.256       .  A
C1176      O1177   1.260       .  A
C1176      C1317   1.466       .  S
O1177     Al1179   1.899       .  S
O1178      C1180   1.258       .  A
O1178     Al1179   1.895       .  S
Al1179     O1187   1.904       .  S
Al1179     O1189   1.890       .  S
Al1179     O1188   1.796       .  S
C1180      O1193   1.261       .  A
C1180      C1310   1.476       .  S
O1181      C1191   1.263       .  A
O1181     Al1183   1.915       .  S
O1182      C1195   1.257       .  A
O1182     Al1192   1.881       .  S
Al1183     O1196   1.905       .  S
Al1183     O1193   1.911       .  S
Al1183     O1188   1.797       .  S
O1184      C1191   1.260       .  A
O1184     Al1192   1.914       .  S
O1185      C1194   1.260       .  A
O1185     Al1192   1.905       .  S
O1186     Al1192   1.886       .  S
O1187      C1194   1.257       .  A
O1188     Al1192   1.795       .  S
O1189      C1190   1.258       .  A
C1190      C1305   1.471       .  S
C1191      C1298   1.485       .  S
C1194      C1313   1.475       .  S
C1195      O1196   1.260       .  A
C1195      C1302   1.465       .  S
C1197      C1293   1.480       .  S
C1197      C1198   1.410       .  A
C1197      C1202   1.400       .  A
C1198      C1199   1.403       .  A
C1198      H1203   1.082       .  S
C1199      C1309   1.485       .  S
C1199      C1200   1.405       .  A
C1200      C1201   1.407       .  A
C1200      H1204   1.082       .  S
C1201      C1329   1.480       .  S
C1201      C1202   1.397       .  A
C1202      H1205   1.085       .  S
C1206      C1289   1.499       .  S
C1206      C1207   1.414       .  A
C1206      C1211   1.413       .  A
C1207      C1208   1.405       .  A
C1207      H1212   1.082       .  S
C1208      C1306   1.489       .  S
C1208      C1209   1.406       .  A
C1209      C1210   1.400       .  A
C1209      H1213   1.082       .  S
C1210      C1333   1.492       .  S
C1210      C1211   1.408       .  A
C1211      H1214   1.084       .  S
C1215      C1216   1.418       .  A
C1216      C1217   1.407       .  A
C1216      H1221   1.083       .  S
C1217      C1338   1.487       .  S
C1217      C1218   1.399       .  A
C1218      H1222   1.083       .  S
C1219      C1301   1.482       .  S
C1219      C1220   1.402       .  A
C1220      H1223   1.084       .  S
C1224      C1225   1.421   1_545  A
C1225      C1226   1.413       .  A
C1225      H1230   1.081       .  S
C1226      C1297   1.495       .  S
C1226      C1227   1.401   1_565  A
C1227      H1231   1.082       .  S
C1228      C1341   1.500       .  S
C1228      C1229   1.412       .  A
C1229      H1232   1.081       .  S
C1233      C1277   1.479       .  S
C1233      C1234   1.401       .  A
C1234      C1235   1.397       .  A
C1234      H1239   1.084       .  S
C1235      C1318   1.475       .  S
C1235      C1236   1.401       .  A
C1236      H1240   1.083       .  S
C1237      C1326   1.497       .  S
C1237      C1238   1.410       .  A
C1238      H1241   1.082       .  S
C1242      C1273   1.491       .  S
C1242      C1243   1.402       .  A
C1243      C1244   1.398       .  A
C1243      H1248   1.085       .  S
C1244      C1321   1.479       .  S
C1244      C1245   1.401       .  A
C1245      H1249   1.082   1_655  S
C1246      C1314   1.494       .  S
C1246      C1247   1.413       .  A
C1247      H1250   1.082       .  S
O1251      C1266   1.267       .  A
O1251     Al1451   1.944   1_565  S
C1252      O1262   1.258       .  A
C1252      C1282   1.487       .  S
O1253     Al1447   1.902   1_554  S
O1254      C1256   1.265       .  A
Al1255     O1445   1.895       .  S
Al1255     O1263   1.923       .  S
C1256      O1269   1.256       .  A
C1256      C1294   1.471       .  S
O1258     Al1268   1.895       .  S
Al1259     O1443   1.913   1_544  S
Al1259     O1269   1.887   1_545  S
O1260      C1267   1.271       .  A
O1260     Al1460   1.941   1_554  S
O1261     Al1268   1.887       .  S
O1262     Al1460   1.888   1_554  S
O1263      C1270   1.266   1_565  A
O1264     Al1268   1.797       .  S
O1265      C1266   1.262       .  A
C1266      C1290   1.486       .  S
C1267      C1278   1.466       .  S
Al1268     O1452   1.907       .  S
Al1268     O1454   1.903       .  S
C1270      C1285   1.474       .  S
C1271      O1272   1.273   1_455  A
C1271      C1274   1.477       .  S
C1273      C1274   1.340   1_655  D
C1274      H1276   1.085       .  S
C1277      C1278   1.339       .  D
C1277      H1279   1.087       .  S
C1281      C1282   1.347       .  D
C1281      H1283   1.087       .  S
C1285      C1286   1.342   1_545  D
C1286      H1288   1.087       .  S
C1289      C1290   1.352       .  D
C1289      H1291   1.087       .  S
C1290      H1292   1.084       .  S
C1293      C1294   1.342       .  D
C1293      H1295   1.087       .  S
C1294      H1296   1.085       .  S
C1297      C1298   1.356       .  D
C1297      H1299   1.086       .  S
C1298      H1300   1.087       .  S
C1301      C1302   1.346       .  D
C1301      H1303   1.087       .  S
C1302      H1304   1.085       .  S
C1305      C1306   1.344       .  D
C1305      H1307   1.087       .  S
C1306      H1308   1.086       .  S
C1309      C1310   1.347       .  D
C1309      H1311   1.087       .  S
C1310      H1312   1.086       .  S
C1313      C1314   1.351       .  D
C1313      H1315   1.086       .  S
C1314      H1316   1.086       .  S
C1317      C1318   1.342       .  D
C1317      H1319   1.087       .  S
C1318      H1320   1.087       .  S
C1321      C1322   1.345       .  D
C1321      H1323   1.087       .  S
C1322      H1324   1.086       .  S
C1325      C1326   1.349       .  D
C1325      H1327   1.087       .  S
C1326      H1328   1.086       .  S
C1329      C1330   1.341       .  D
C1329      H1331   1.087       .  S
C1330      H1332   1.086       .  S
C1333      C1334   1.354       .  D
C1333      H1335   1.087       .  S
C1334      H1336   1.086       .  S
C1337      C1338   1.350       .  D
C1337      H1339   1.086       .  S
C1338      H1340   1.087       .  S
C1341      C1342   1.352       .  D
C1341      H1343   1.086       .  S
C1342      H1344   1.086       .  S
O1345      C1360   1.260       .  A
O1345     Al1353   1.891       .  S
C1346      O1356   1.257       .  A
C1346      O1347   1.260       .  A
C1346      C1529   1.469       .  S
O1347     Al1349   1.893       .  S
O1348      C1350   1.259       .  A
O1348     Al1349   1.903       .  S
Al1349     O1357   1.895       .  S
Al1349     O1359   1.897       .  S
Al1349     O1358   1.793       .  S
C1350      O1363   1.259       .  A
C1350      C1526   1.477       .  S
O1351      C1361   1.258       .  A
O1351     Al1353   1.892       .  S
O1352      C1365   1.259       .  A
O1352     Al1362   1.906       .  S
Al1353     O1366   1.896       .  S
Al1353     O1363   1.903       .  S
Al1353     O1358   1.792       .  S
O1354      C1361   1.259       .  A
O1354     Al1362   1.886       .  S
O1355      C1364   1.256       .  A
O1355     Al1362   1.886       .  S
O1356     Al1362   1.894       .  S
O1357      C1364   1.259       .  A
O1358     Al1362   1.798       .  S
O1359      C1360   1.259       .  A
C1360      C1522   1.464       .  S
C1361      C1514   1.462       .  S
C1364      C1534   1.464       .  S
C1365      O1366   1.258       .  A
C1365      C1517   1.470       .  S
O1367      C1382   1.263       .  A
O1367     Al1375   1.936       .  S
C1368      O1378   1.273       .  A
C1368      O1369   1.255       .  A
C1368      C1509   1.484       .  S
O1369     Al1371   1.875       .  S
O1370      C1372   1.260       .  A
O1370     Al1371   1.890       .  S
Al1371     O1379   1.889       .  S
Al1371     O1381   1.891       .  S
Al1371     O1380   1.789       .  S
C1372      O1385   1.266       .  A
C1372      C1502   1.460       .  S
O1373      C1383   1.257       .  A
O1373     Al1375   1.907       .  S
O1374      C1387   1.272       .  A
O1374     Al1384   1.933       .  S
Al1375     O1388   1.891       .  S
Al1375     O1385   1.910       .  S
Al1375     O1380   1.795       .  S
O1376      C1383   1.259       .  A
O1376     Al1384   1.913       .  S
O1377      C1386   1.255       .  A
O1377     Al1384   1.901       .  S
O1378     Al1384   1.949       .  S
O1379      C1386   1.254       .  A
O1380     Al1384   1.792       .  S
O1381      C1382   1.255       .  A
C1382      C1497   1.476       .  S
C1383      C1490   1.484       .  S
C1386      C1505   1.477       .  S
C1387      O1388   1.265       .  A
C1387      C1494   1.475       .  S
C1389      C1485   1.470       .  S
C1389      C1390   1.408       .  A
C1389      C1394   1.400       .  A
C1390      C1391   1.392       .  A
C1390      H1395   1.083       .  S
C1391      C1501   1.481       .  S
C1391      C1392   1.404       .  A
C1392      C1393   1.404       .  A
C1392      H1396   1.082       .  S
C1393      C1521   1.478       .  S
C1393      C1394   1.397       .  A
C1394      H1397   1.084       .  S
C1398      C1481   1.494       .  S
C1398      C1399   1.415       .  A
C1398      C1403   1.407       .  A
C1399      C1400   1.403       .  A
C1399      H1404   1.082       .  S
C1400      C1498   1.485       .  S
C1400      C1401   1.404       .  A
C1401      C1402   1.403       .  A
C1401      H1405   1.083       .  S
C1402      C1525   1.485       .  S
C1402      C1403   1.404       .  A
C1403      H1406   1.084       .  S
C1407      C1408   1.403       .  A
C1408      C1409   1.395       .  A
C1408      H1413   1.085       .  S
C1409      C1530   1.476       .  S
C1409      C1410   1.400       .  A
C1410      H1414   1.083       .  S
C1411      C1493   1.484       .  S
C1411      C1412   1.401       .  A
C1412      H1415   1.084       .  S
C1416      C1417   1.417   1_545  A
C1417      C1418   1.412       .  A
C1417      H1422   1.081       .  S
C1418      C1489   1.501       .  S
C1418      C1419   1.412   1_565  A
C1419      H1423   1.080       .  S
C1420      C1533   1.480       .  S
C1420      C1421   1.395       .  A
C1421      H1424   1.085       .  S
C1425      C1469   1.502       .  S
C1425      C1426   1.421       .  A
C1426      C1427   1.414       .  A
C1426      H1431   1.083       .  S
C1427      C1510   1.486       .  S
C1427      C1428   1.390       .  A
C1428      H1432   1.083       .  S
C1429      C1518   1.489       .  S
C1429      C1430   1.406       .  A
C1430      H1433   1.082       .  S
C1434      C1465   1.484       .  S
C1434      C1435   1.404       .  A
C1435      C1436   1.392       .  A
C1435      H1440   1.085       .  S
C1436      C1513   1.471       .  S
C1436      C1437   1.393       .  A
C1437      H1441   1.083       .  S
C1438      C1506   1.488       .  S
C1438      C1439   1.407       .  A
C1439      H1442   1.084       .  S
O1443      C1458   1.263       .  A
C1444      O1454   1.263       .  A
C1444      C1474   1.474       .  S
O1446      C1448   1.269       .  A
Al1447     O1455   1.942       .  S
C1448      O1461   1.258       .  A
C1448      C1486   1.456       .  S
O1450     Al1460   1.921       .  S
Al1451     O1461   1.870   1_545  S
O1452      C1459   1.256       .  A
O1453     Al1460   1.934       .  S
O1455      C1462   1.269   1_565  A
O1456     Al1460   1.786   1_554  S
O1457      C1458   1.267       .  A
C1458      C1482   1.479       .  S
C1459      C1470   1.479       .  S
C1462      C1477   1.485       .  S
C1463      O1464   1.264   1_455  A
C1463      C1466   1.477       .  S
C1465      C1466   1.342   1_655  D
C1466      H1468   1.085       .  S
C1469      C1470   1.357       .  D
C1469      H1471   1.087       .  S
C1473      C1474   1.341       .  D
C1473      H1475   1.088       .  S
C1477      C1478   1.346   1_545  D
C1478      H1480   1.087       .  S
C1481      C1482   1.345       .  D
C1481      H1483   1.087       .  S
C1482      H1484   1.085       .  S
C1485      C1486   1.338       .  D
C1485      H1487   1.087       .  S
C1486      H1488   1.086       .  S
C1489      C1490   1.352       .  D
C1489      H1491   1.087       .  S
C1490      H1492   1.086       .  S
C1493      C1494   1.344       .  D
C1493      H1495   1.087       .  S
C1494      H1496   1.087       .  S
C1497      C1498   1.345       .  D
C1497      H1499   1.087       .  S
C1498      H1500   1.086       .  S
C1501      C1502   1.336       .  D
C1501      H1503   1.087       .  S
C1502      H1504   1.087       .  S
C1505      C1506   1.350       .  D
C1505      H1507   1.085       .  S
C1506      H1508   1.087       .  S
C1509      C1510   1.336       .  D
C1509      H1511   1.087       .  S
C1510      H1512   1.088       .  S
C1513      C1514   1.344       .  D
C1513      H1515   1.087       .  S
C1514      H1516   1.087       .  S
C1517      C1518   1.346       .  D
C1517      H1519   1.087       .  S
C1518      H1520   1.086       .  S
C1521      C1522   1.341       .  D
C1521      H1523   1.087       .  S
C1522      H1524   1.087       .  S
C1525      C1526   1.348       .  D
C1525      H1527   1.087       .  S
C1526      H1528   1.086       .  S
C1529      C1530   1.343       .  D
C1529      H1531   1.087       .  S
C1530      H1532   1.087       .  S
C1533      C1534   1.341       .  D
C1533      H1535   1.087       .  S
C1534      H1536   1.086       .  S
