geometry optimzed in LAMMPS
_audit_creation_date              2020-11-30 
_audit_creation_method            'lammps2cif' 
_symmetry_space_group_name_H-M    'P1' 
_symmetry_Int_Tables_number       1 
_symmetry_cell_setting            triclinic 
loop_ 
_symmetry_equiv_pos_as_xyz 
  x,y,z 
_cell_length_a                    24.5166536 
_cell_length_b                    23.755680685521725 
_cell_length_c                    26.424490832246565 
_cell_angle_alpha                 91.03027274889071 
_cell_angle_beta                  88.594864199987 
_cell_angle_gamma                 120.53306643203278 
loop_ 
_atom_site_label 
_atom_site_type_symbol 
_atom_site_fract_x 
_atom_site_fract_y 
_atom_site_fract_z 
_atom_site_charge 
C1          C  0.33299950  0.16629563  0.45241289     0.45800
H2          H  0.33083992  0.16812908  0.41112445    -0.03200
C3          C  0.33389844  0.16423716  0.54749468     0.45900
H4          H  0.33950803  0.16782911  0.58839858    -0.03200
C5          C  0.29268069  0.08992558  0.47382821    -0.16900
C6          C  0.40627007  0.19981982  0.47253141    -0.16700
C7          C  0.30092450  0.20680726  0.47686080    -0.17000
C8          C  0.29292284  0.08955035  0.52612117    -0.17000
C9          C  0.40607399  0.19633761  0.52404266    -0.16600
C10         C  0.29915981  0.20400167  0.52795743    -0.16900
O11         O  0.23153442  0.15493238  0.05276433    -0.71400
O12         O  0.16196057  0.20470200  0.94694935    -0.71700
O13         O  0.16225520  0.21183631  0.05126069    -0.71500
O14         O  0.23121241  0.14608685  0.95201097    -0.71500
O15         O  0.14252254  0.05370969  0.95175339    -0.71500
O16         O  0.07943761  0.11494807  0.05838733    -0.71500
O17         O  0.07349027  0.11231009  0.95345158    -0.71400
O18         O  0.14796295  0.05778623  0.05094031    -0.71600
V19         V  0.19498742  0.17786834  0.00043565     1.35200
V20         V  0.11218125  0.08678450  0.00339633     1.35200
C21         C  0.19954322  0.09843302  0.07112532     0.77800
C22         C  0.10676116  0.16630210  0.93085516     0.77900
C23         C  0.11282974  0.17218967  0.07614993     0.77700
C24         C  0.19805112  0.08863039  0.93507446     0.77700
O25         O  0.36059433  0.42816513  0.05072177    -0.71400
O26         O  0.43025467  0.04732486  0.94071298    -0.71700
O27         O  0.44137154  0.05611382  0.04393173    -0.71500
O28         O  0.35350822  0.42197539  0.94852704    -0.71500
O29         O  0.27592863  0.44044549  0.94987471    -0.71500
O30         O  0.35971605  0.06813935  0.05388156    -0.71500
O31         O  0.35433330  0.06846929  0.95088533    -0.71400
O32         O  0.27807319  0.43893931  0.05204763    -0.71600
V33         V  0.39504748  0.48877980  0.99634859     1.35200
V34         V  0.31864111  0.50400594  0.00169363     1.35200
C35         C  0.30765736  0.41372134  0.07048288     0.77800
C36         C  0.40000418  0.07319803  0.92435612     0.77900
C37         C  0.41388445  0.08105128  0.06828769     0.77700
C38         C  0.30425845  0.41424341  0.92867588     0.77700
O39         O  0.41014367  0.35852093  0.94826370    -0.71400
O40         O  0.01971666  0.43712062  0.05925300    -0.71700
O41         O  0.02859933  0.44752524  0.95395970    -0.71500
O42         O  0.39934130  0.34834094  0.04830249    -0.71500
O43         O  0.43622096  0.28402506  0.05835481    -0.71500
O44         O  0.04030926  0.36376840  0.94090403    -0.71500
O45         O  0.05576449  0.37171730  0.04421517    -0.71400
O46         O  0.42099870  0.27375415  0.95433552    -0.71600
V47         V  0.46522705  0.39706344  0.00255734     1.35200
V48         V  0.48804891  0.32417411  0.99938289     1.35200
C49         C  0.39816308  0.30350830  0.93202252     0.77800
C50         C  0.05379407  0.41412023  0.07268861     0.77900
C51         C  0.04764234  0.41752973  0.92534669     0.77700
C52         C  0.40520196  0.30958744  0.07588434     0.77700
C53         C  0.03009161  0.23104525  0.44928411     0.02600
C54         C  0.46899807  0.22751577  0.43838638     0.02600
C55         C  0.45862993  0.23060555  0.38635403    -0.17900
C56         C  0.49412332  0.22162396  0.34800419     0.02600
C57         C  0.03993272  0.20574943  0.36134814     0.02600
C58         C  0.05205445  0.20364843  0.41228445    -0.17900
H59         H  0.08831301  0.19272453  0.42194535     0.04600
H60         H  0.41945719  0.23475013  0.37509479     0.04600
C61         C  0.29203300  0.25891861  0.44806866     0.02600
C62         C  0.23428348  0.26346358  0.43929163     0.02600
C63         C  0.21956680  0.26268987  0.38778559    -0.17900
C64         C  0.26362751  0.27627900  0.34894487     0.02600
C65         C  0.32507429  0.29167658  0.36102216     0.02600
C66         C  0.33977042  0.28700613  0.41066768    -0.17900
H67         H  0.38603208  0.29391252  0.41791727     0.04600
H68         H  0.17531031  0.25673021  0.37687083     0.04600
C69         C  0.46303563  0.20111886  0.55496693     0.02600
C70         C  0.02914201  0.25594645  0.56511231     0.02600
C71         C  0.04583657  0.26618574  0.61676043    -0.17900
C72         C  0.01428247  0.21875318  0.65370034     0.02600
C73         C  0.45993585  0.16021281  0.64011972     0.02600
C74         C  0.43835393  0.15021362  0.59053742    -0.17900
H75         H  0.39810605  0.10363639  0.58046895     0.04600
H76         H  0.08767612  0.30895193  0.62844067     0.04600
C77         C  0.27011440  0.23753464  0.56325045     0.02600
C78         C  0.25677932  0.29257190  0.55655184     0.02600
C79         C  0.27976409  0.34122277  0.59524290    -0.17900
C80         C  0.30029245  0.33204808  0.64140494     0.02600
C81         C  0.29974863  0.27385904  0.64972109     0.02600
C82         C  0.27694518  0.22514301  0.61343952    -0.17900
H83         H  0.27170235  0.17925873  0.62375554     0.04600
H84         H  0.27728019  0.38519321  0.59136742     0.04600
C85         C  0.25840873  0.02740262  0.56183785     0.02600
C86         C  0.20028186  0.46305237  0.55406522     0.02600
C87         C  0.15134159  0.44288134  0.59132351    -0.17900
C88         C  0.16397102  0.46935907  0.64022546     0.02600
C89         C  0.22681616  0.01549745  0.65154472     0.02600
C90         C  0.27245301  0.04354537  0.61332709    -0.17900
H91         H  0.31703126  0.08313616  0.62521376     0.04600
H92         H  0.10539494  0.40041511  0.58440844     0.04600
C93         C  0.26080996  0.02677630  0.43795025     0.02600
C94         C  0.20294591  0.46001978  0.44305643     0.02600
C95         C  0.15881208  0.43826440  0.40326508    -0.17900
C96         C  0.17525548  0.46761635  0.35585331     0.02600
C97         C  0.23716400  0.02103615  0.34846888     0.02600
C98         C  0.28031953  0.04502532  0.38768379    -0.17900
H99         H  0.32778907  0.08452870  0.37917249     0.04600
H100        H  0.11342058  0.39349729  0.40725433     0.04600
C101        C  0.16469620  0.33097563  0.54886137     0.45800
H102        H  0.16980288  0.33490343  0.59018123    -0.03200
C103        C  0.16023405  0.32489470  0.45338041     0.45900
H104        H  0.15786204  0.32528640  0.41179890    -0.03200
C105        C  0.09074876  0.28910681  0.52981904    -0.16900
C106        C  0.19448532  0.40288817  0.52517646    -0.16700
C107        C  0.20546777  0.29845144  0.52551340    -0.17000
C108        C  0.08922025  0.28432005  0.47835768    -0.17000
C109        C  0.19281247  0.40016423  0.47422672    -0.16600
C110        C  0.20098159  0.29276352  0.47400161    -0.16900
C111        C  0.32488216  0.26489543  0.69687090    -0.04900
C112        C  0.38992771  0.28826977  0.70054130    -0.04800
C113        C  0.41755896  0.30035500  0.74810117    -0.23000
C114        C  0.37984259  0.28539504  0.79214451     0.19200
C115        C  0.31434958  0.26057698  0.78816308     0.16400
C116        C  0.28784348  0.25147814  0.74058657    -0.18000
C117        C  0.27723489  0.25035523  0.83177456    -0.19900
C118        C  0.30380330  0.26126509  0.87937076    -0.12400
C119        C  0.36760380  0.28153720  0.88366815     0.04300
C120        C  0.40607165  0.29551384  0.84012913    -0.24600
H121        H  0.41993591  0.30273227  0.66686026     0.09300
H122        H  0.46840907  0.32457101  0.75043432     0.12900
H123        H  0.23898567  0.23889084  0.73722617     0.12900
H124        H  0.22776049  0.23516665  0.82895581     0.12600
H125        H  0.27553995  0.25697084  0.91264760     0.13200
H126        H  0.45650744  0.31647242  0.84372414     0.15100
C127        C  0.06753503  0.43854710  0.87203044    -0.04900
C128        C  0.05621838  0.48480814  0.84923233    -0.04800
C129        C  0.06434177  0.49526081  0.79660741    -0.23000
C130        C  0.08153057  0.45822614  0.76532341     0.19200
C131        C  0.09323941  0.41271869  0.78844422     0.16400
C132        C  0.08743632  0.40391037  0.84107352    -0.18000
C133        C  0.11380110  0.37833329  0.75901450    -0.19900
C134        C  0.12635132  0.38959844  0.70775117    -0.12400
C135        C  0.11913853  0.43711242  0.68376765     0.04300
C136        C  0.09298201  0.46930589  0.71236540    -0.24600
H137        H  0.04033940  0.51233323  0.87192886     0.09300
H138        H  0.05899735  0.53336494  0.78063103     0.12900
H139        H  0.09810727  0.36954548  0.85804933     0.12900
H140        H  0.12345662  0.34512192  0.77677272     0.12600
H141        H  0.15064260  0.36795226  0.68858405     0.13200
H142        H  0.08915003  0.00807027  0.69499532     0.15100
C143        C  0.13127585  0.43926384  0.31178157    -0.04900
C144        C  0.07809740  0.44666650  0.30863072    -0.04800
C145        C  0.05123713  0.44362418  0.26137921    -0.23000
C146        C  0.07707843  0.43342541  0.21625388     0.19200
C147        C  0.12879387  0.42391264  0.21976666     0.16400
C148        C  0.15320423  0.42314713  0.26727487    -0.18000
C149        C  0.15976131  0.42200433  0.17537148    -0.19900
C150        C  0.13663688  0.42088810  0.12788044    -0.12400
C151        C  0.08417320  0.42803282  0.12292474     0.04300
C152        C  0.05659497  0.43801968  0.16743265    -0.24600
H153        H  0.06101705  0.96072515  0.34183119     0.09300
H154        H  0.01347858  0.45416397  0.26007718     0.12900
H155        H  0.19469829  0.41829492  0.26909563     0.12900
H156        H  0.20112461  0.41926544  0.17752463     0.12600
H157        H  0.16008943  0.41452779  0.09486176     0.13200
H158        H  0.02327289  0.45413585  0.16383051     0.15100
C159        C  0.39502101  0.31395493  0.13029687    -0.04900
C160        C  0.40967143  0.37560584  0.14957004    -0.04800
C161        C  0.41133326  0.38765792  0.20123921    -0.23000
C162        C  0.39721251  0.33785404  0.23503844     0.19200
C163        C  0.38023744  0.27523393  0.21609630     0.16400
C164        C  0.38016070  0.26354631  0.16377287    -0.18000
C165        C  0.36185194  0.22466813  0.24991183    -0.19900
C166        C  0.35386918  0.23302487  0.30085682    -0.12400
C167        C  0.36640945  0.29381074  0.31937469     0.04300
C168        C  0.39342258  0.34774096  0.28714637    -0.24600
H169        H  0.42282617  0.41617793  0.12453215     0.09300
H170        H  0.42304456  0.43578595  0.21454255     0.12900
H171        H  0.36816650  0.21581944  0.14929763     0.12900
H172        H  0.35376912  0.17896062  0.23668123     0.12600
H173        H  0.33129662  0.19028611  0.32468893     0.13200
H174        H  0.40105601  0.39436472  0.30114813     0.16100
C175        C  0.43625288  0.10771518  0.11936298    -0.04900
C176        C  0.43337317  0.06265473  0.15423762    -0.04800
C177        C  0.43571494  0.07528428  0.20584044    -0.23000
C178        C  0.44772692  0.13638261  0.22326737     0.19200
C179        C  0.46397205  0.18705094  0.18841363     0.16400
C180        C  0.45440001  0.17155112  0.13604913    -0.18000
C181        C  0.49041065  0.25135823  0.20726365    -0.19900
C182        C  0.49670400  0.26360213  0.25995760    -0.12400
C183        C  0.47377459  0.21153006  0.29433363     0.04300
C184        C  0.44763801  0.14802706  0.27522634    -0.24600
H185        H  0.42521006  0.01552740  0.14159412     0.09300
H186        H  0.42687683  0.03704142  0.23214829     0.12900
H187        H  0.46167571  0.20833356  0.10890866     0.12900
H188        H  0.50711656  0.29194145  0.18143717     0.12600
H189        H  0.52003241  0.31316000  0.27399525     0.13200
H190        H  0.43470063  0.10845964  0.30148824     0.15100
C191        C  0.40909386  0.09754965  0.87197032    -0.04900
C192        C  0.38130156  0.13367103  0.85747520    -0.04800
C193        C  0.37530117  0.14287558  0.80638687    -0.23000
C194        C  0.39633846  0.11618876  0.76864710     0.19200
C195        C  0.42634741  0.08185848  0.78258561     0.16400
C196        C  0.43316353  0.07314972  0.83410965    -0.18000
C197        C  0.45244022  0.06049099  0.74465376    -0.19900
C198        C  0.44899750  0.07223926  0.69372615    -0.12400
C199        C  0.42521998  0.11210914  0.68032224     0.04300
C200        C  0.39403532  0.12933821  0.71734536    -0.24600
H201        H  0.36136675  0.15210688  0.88562712     0.09300
H202        H  0.35111122  0.16786094  0.79613347     0.12900
H203        H  0.45613190  0.04648668  0.84460908     0.12900
H204        H  0.48041179  0.03959174  0.75439731     0.12600
H205        H  0.47519318  0.06048468  0.66611959     0.13200
H206        H  0.37687482  0.16154784  0.70720327     0.15100
C207        C  0.31113375  0.37572876  0.68557857    -0.04900
C208        C  0.37274413  0.41028882  0.70434749    -0.04800
C209        C  0.38236618  0.41950211  0.75642305    -0.23000
C210        C  0.33163890  0.40160815  0.79015569     0.19200
C211        C  0.26960254  0.36871363  0.77189332     0.16400
C212        C  0.25960357  0.35774264  0.71945012    -0.18000
C213        C  0.21922991  0.33897702  0.80698861    -0.19900
C214        C  0.22867455  0.35135924  0.85900034    -0.12400
C215        C  0.29032887  0.38899836  0.87671851     0.04300
C216        C  0.34166576  0.41070700  0.84230155    -0.24600
H217        H  0.41273737  0.42080059  0.67968962     0.09300
H218        H  0.42917858  0.43658502  0.77079984     0.12900
H219        H  0.21204784  0.32553860  0.70617168     0.12900
H220        H  0.17379005  0.30230110  0.79438149     0.12600
H221        H  0.18855580  0.33122953  0.88507136     0.13200
H222        H  0.38963351  0.43606775  0.85611920     0.15100
C223        C  0.29089916  0.38703326  0.12205023    -0.04900
C224        C  0.30358075  0.43419383  0.15861534    -0.04800
C225        C  0.29776507  0.42031588  0.20968272    -0.23000
C226        C  0.27414236  0.35721773  0.22596022     0.19200
C227        C  0.26143827  0.30747117  0.18994404     0.16400
C228        C  0.27042253  0.32259384  0.13732655    -0.18000
C229        C  0.24066124  0.24454391  0.20784348    -0.19900
C230        C  0.23399465  0.23232861  0.26029738    -0.12400
C231        C  0.24897753  0.28260354  0.29566109     0.04300
C232        C  0.26665610  0.34455336  0.27803067    -0.24600
H233        H  0.31596517  0.48206188  0.14638456     0.09300
H234        H  0.31098301  0.45841079  0.23675620     0.12900
H235        H  0.26240155  0.28549819  0.10930841     0.12900
H236        H  0.23154171  0.20593419  0.18128129     0.12600
H237        H  0.22038668  0.18479808  0.27399550     0.13200
H238        H  0.27982932  0.38415973  0.30505330     0.15100
C239        C  0.07484822  0.19268284  0.32038011    -0.04900
C240        C  0.05486302  0.12772163  0.30755856    -0.04800
C241        C  0.05583313  0.11052364  0.25679165    -0.23000
C242        C  0.08016990  0.15819463  0.21849846     0.19200
C243        C  0.10614902  0.22383919  0.23232955     0.16400
C244        C  0.10648265  0.24122993  0.28348343    -0.18000
C245        C  0.12641191  0.27072744  0.19452510    -0.19900
C246        C  0.12460723  0.25441895  0.14308508    -0.12400
C247        C  0.10052106  0.18927467  0.12835784     0.04300
C248        C  0.07463855  0.14133365  0.16660248    -0.24600
H249        H  0.52924507  0.08932860  0.33504059     0.09300
H250        H  0.03225809  0.05921891  0.24692222     0.12900
H251        H  0.12205140  0.29156887  0.29346576     0.12900
H252        H  0.14694926  0.32019750  0.20611137     0.12600
H253        H  0.14446683  0.29291376  0.11516215     0.13200
H254        H  0.04864326  0.09045537  0.15621521     0.15100
C255        C  0.04736797  0.22082098  0.70133035    -0.04900
C256        C  0.08429707  0.19129418  0.69959817    -0.04800
C257        C  0.09731460  0.16957376  0.74385269    -0.23000
C258        C  0.08075517  0.18368939  0.79165223     0.19200
C259        C  0.04894937  0.21901513  0.79447561     0.16400
C260        C  0.02958877  0.23426370  0.74917984    -0.18000
C261        C  0.03525702  0.23604192  0.84245816    -0.19900
C262        C  0.05435311  0.21971310  0.88698121    -0.12400
C263        C  0.08407028  0.18248727  0.88447825     0.04300
C264        C  0.09501648  0.16295153  0.83648209    -0.24600
H265        H  0.09605210  0.17740883  0.66347596     0.09300
H266        H  0.11617666  0.13792043  0.73969762     0.12900
H267        H  0.99907589  0.25431875  0.75119887     0.12900
H268        H  0.00983004  0.26198997  0.84555868     0.12600
H269        H  0.04480116  0.23501638  0.92333367     0.13200
H270        H  0.11483914  0.13187697  0.83381003     0.15100
C271        C  0.24042462  0.04597352  0.70172108    -0.04900
C272        C  0.22305399  0.09291230  0.70950618    -0.04800
C273        C  0.21398529  0.10897717  0.75780596    -0.23000
C274        C  0.22381940  0.08107913  0.79896985     0.19200
C275        C  0.24094285  0.03333339  0.79280326     0.16400
C276        C  0.25059246  0.01638083  0.74344692    -0.18000
C277        C  0.24475549  0.00246797  0.83621037    -0.19900
C278        C  0.22995720  0.01846423  0.88425668    -0.12400
C279        C  0.21739995  0.06935435  0.88892282     0.04300
C280        C  0.21367688  0.09909274  0.84641475    -0.24600
H281        H  0.20768659  0.11022910  0.67858363     0.09300
H282        H  0.19583152  0.14070019  0.76405211     0.12900
H283        H  0.26116878  0.97776571  0.73734543     0.12900
H284        H  0.25804833  0.96621847  0.83244358     0.12600
H285        H  0.22693723  0.99162259  0.91732901     0.13200
H286        H  0.19871646  0.13398522  0.85084937     0.15100
C287        C  0.25526026  0.05550826  0.30011177    -0.04900
C288        C  0.30057565  0.05316140  0.26919746    -0.04800
C289        C  0.30203814  0.06430960  0.21721125    -0.23000
C290        C  0.26024366  0.07919941  0.19596496     0.19200
C291        C  0.21475762  0.08129507  0.22784768     0.16400
C292        C  0.21560254  0.07488694  0.28000867    -0.18000
C293        C  0.16344065  0.07948359  0.20668491    -0.19900
C294        C  0.15854007  0.07829002  0.15496993    -0.12400
C295        C  0.20795260  0.08744611  0.12326392     0.04300
C296        C  0.26023900  0.08815153  0.14337855    -0.24600
H297        H  0.33143210  0.03851505  0.28524549     0.09300
H298        H  0.33416758  0.06088478  0.19242669     0.12900
H299        H  0.17942601  0.07559000  0.30406691     0.12900
H300        H  0.12425931  0.07030427  0.23019208     0.12600
H301        H  0.11489979  0.06665050  0.13838586     0.13200
H302        H  0.29773688  0.09183511  0.11882623     0.15100
C303        C  0.33304972  0.66627370  0.45239549     0.45800
H304        H  0.33088860  0.66808638  0.41110318    -0.03200
C305        C  0.33396162  0.66424149  0.54747979     0.45900
H306        H  0.33958381  0.66784772  0.58838313    -0.03200
C307        C  0.29271723  0.58991302  0.47383398    -0.16900
C308        C  0.40632152  0.69979515  0.47251160    -0.16700
C309        C  0.30098984  0.70680431  0.47683402    -0.17000
C310        C  0.29296167  0.58955217  0.52612521    -0.17000
C311        C  0.40613104  0.69631999  0.52402215    -0.16600
C312        C  0.29923128  0.70400877  0.52793155    -0.16900
O313        O  0.23169173  0.65498656  0.05280660    -0.71400
O314        O  0.16207796  0.70468604  0.94696033    -0.71700
O315        O  0.16239414  0.71187154  0.05128326    -0.71500
O316        O  0.23134771  0.64609573  0.95205001    -0.71500
O317        O  0.14267718  0.55369517  0.95183148    -0.71500
O318        O  0.07958066  0.61498372  0.05842068    -0.71500
O319        O  0.07362570  0.61228203  0.95347049    -0.71400
O320        O  0.14812200  0.55783797  0.05100802    -0.71600
V321        V  0.19512439  0.67788903  0.00046462     1.35200
V322        V  0.11232845  0.58679827  0.00344600     1.35200
C323        C  0.19970779  0.59849317  0.07118194     0.77800
C324        C  0.10688772  0.66626417  0.93085503     0.77900
C325        C  0.11297540  0.67222662  0.07618046     0.77700
C326        C  0.19819642  0.58862349  0.93513649     0.77700
O327        O  0.36057275  0.92811626  0.05066959    -0.71400
O328        O  0.43031332  0.54720794  0.94065922    -0.71700
O329        O  0.44151557  0.55612307  0.04388662    -0.71500
O330        O  0.35358064  0.92205490  0.94846270    -0.71500
O331        O  0.27591490  0.94039531  0.94979796    -0.71500
O332        O  0.35996026  0.56832234  0.05382627    -0.71500
O333        O  0.35448203  0.56848957  0.95081851    -0.71400
O334        O  0.27795386  0.93872021  0.05196861    -0.71600
V335        V  0.39500505  0.98880757  0.99634410     1.35200
V336        V  0.31850885  0.00388829  0.00168614     1.35200
C337        C  0.30759533  0.91356710  0.07040667     0.77800
C338        C  0.40009972  0.57310868  0.92427537     0.77900
C339        C  0.41410026  0.58114661  0.06823398     0.77700
C340        C  0.30432459  0.91428180  0.92859094     0.77700
O341        O  0.41010860  0.85846373  0.94823569    -0.71400
O342        O  0.01972908  0.93708462  0.05919438    -0.71700
O343        O  0.02856906  0.94746684  0.95390467    -0.71500
O344        O  0.39934763  0.84831266  0.04826521    -0.71500
O345        O  0.43623835  0.78400714  0.05832604    -0.71500
O346        O  0.04026188  0.86370030  0.94084263    -0.71500
O347        O  0.05577715  0.87168314  0.04414842    -0.71400
O348        O  0.42095905  0.77369397  0.95432060    -0.71600
V349        V  0.46521691  0.89702008  0.00251336     1.35200
V350        V  0.48803531  0.82412827  0.99933943     1.35200
C351        C  0.39811844  0.80344207  0.93200674     0.77800
C352        C  0.05381227  0.91408809  0.07262370     0.77900
C353        C  0.04758788  0.91745875  0.92528442     0.77700
C354        C  0.40522743  0.80957919  0.07585320     0.77700
C355        C  0.03014168  0.73102030  0.44928093     0.02600
C356        C  0.46905282  0.72749390  0.43837153     0.02600
C357        C  0.45869645  0.73058512  0.38633703    -0.17900
C358        C  0.49420187  0.72160383  0.34799728     0.02600
C359        C  0.04000605  0.70572792  0.36135858     0.02600
C360        C  0.05210547  0.70361341  0.41229571    -0.17900
H361        H  0.08836942  0.69269927  0.42196339     0.04600
H362        H  0.41952367  0.73472568  0.37507092     0.04600
C363        C  0.29209869  0.75891320  0.44803417     0.02600
C364        C  0.23435376  0.76347266  0.43926461     0.02600
C365        C  0.21963579  0.76270378  0.38776107    -0.17900
C366        C  0.26369649  0.77630519  0.34891789     0.02600
C367        C  0.32514753  0.79171290  0.36099015     0.02600
C368        C  0.33983522  0.78700044  0.41063031    -0.17900
H369        H  0.38609303  0.79389358  0.41787348     0.04600
H370        H  0.17537259  0.75672934  0.37685376     0.04600
C371        C  0.46309154  0.70108031  0.55493494     0.02600
C372        C  0.02919622  0.75590744  0.56508884     0.02600
C373        C  0.04588984  0.76612119  0.61673468    -0.17900
C374        C  0.01436723  0.71864861  0.65365195     0.02600
C375        C  0.46005722  0.66008715  0.64004241     0.02600
C376        C  0.43842011  0.65014356  0.59047944    -0.17900
H377        H  0.39813798  0.60358440  0.58041864     0.04600
H378        H  0.08771581  0.80889872  0.62842020     0.04600
C379        C  0.27018971  0.73754377  0.56322004     0.02600
C380        C  0.25685819  0.79258217  0.55651920     0.02600
C381        C  0.27988099  0.84125232  0.59519457    -0.17900
C382        C  0.30049969  0.83212276  0.64133145     0.02600
C383        C  0.29994328  0.77392667  0.64965739     0.02600
C384        C  0.27705064  0.72517327  0.61340625    -0.17900
H385        H  0.27176297  0.67927074  0.62373372     0.04600
H386        H  0.27736976  0.88520816  0.59132737     0.04600
C387        C  0.25841393  0.52742011  0.56185720     0.02600
C388        C  0.20028978  0.96303281  0.55403302     0.02600
C389        C  0.15134588  0.94283819  0.59128938    -0.17900
C390        C  0.16397281  0.96929005  0.64019830     0.02600
C391        C  0.22681507  0.51557545  0.65156155     0.02600
C392        C  0.27245841  0.54358843  0.61334279    -0.17900
H393        H  0.31706293  0.58315269  0.62521861     0.04600
H394        H  0.10540220  0.90037062  0.58436705     0.04600
C395        C  0.26084489  0.52674550  0.43798439     0.02600
C396        C  0.20295611  0.96000518  0.44300978     0.02600
C397        C  0.15882031  0.93822345  0.40321338    -0.17900
C398        C  0.17522216  0.96761318  0.35581241     0.02600
C399        C  0.23723022  0.52099024  0.34850635     0.02600
C400        C  0.28038316  0.54495232  0.38772171    -0.17900
H401        H  0.32786521  0.58443879  0.37921825     0.04600
H402        H  0.11345422  0.89342535  0.40719242     0.04600
C403        C  0.16475642  0.83097318  0.54883794     0.45800
H404        H  0.16986774  0.83490593  0.59015857    -0.03200
C405        C  0.16028393  0.82488728  0.45335717     0.45900
H406        H  0.15790473  0.82527000  0.41177617    -0.03200
C407        C  0.09080645  0.78909081  0.52979979    -0.16900
C408        C  0.19452600  0.90288425  0.52514670    -0.16700
C409        C  0.20553566  0.79845637  0.52548861    -0.17000
C410        C  0.08927344  0.78430780  0.47834045    -0.17000
C411        C  0.19284839  0.90016056  0.47419488    -0.16600
C412        C  0.20104572  0.79276730  0.47397719    -0.16900
C413        C  0.32502905  0.76493445  0.69682380    -0.04900
C414        C  0.39005594  0.78823111  0.70053096    -0.04800
C415        C  0.41763619  0.80025161  0.74810867    -0.23000
C416        C  0.37988601  0.78530862  0.79213092     0.19200
C417        C  0.31441668  0.76058915  0.78811190     0.16400
C418        C  0.28796031  0.75153947  0.74051883    -0.18000
C419        C  0.27727987  0.75041327  0.83170213    -0.19900
C420        C  0.30380175  0.76128372  0.87931486    -0.12400
C421        C  0.36757661  0.78146816  0.88364819     0.04300
C422        C  0.40606590  0.79537843  0.84013034    -0.24600
H423        H  0.42009403  0.80267933  0.66686735     0.09300
H424        H  0.46847838  0.82441219  0.75047312     0.12900
H425        H  0.23911457  0.73898468  0.73712884     0.12900
H426        H  0.22781872  0.73526284  0.82885563     0.12600
H427        H  0.27552353  0.75701198  0.91257589     0.13200
H428        H  0.45648849  0.81626854  0.84375364     0.15100
C429        C  0.06744074  0.93845589  0.87196325    -0.04900
C430        C  0.05607438  0.98467907  0.84915571    -0.04800
C431        C  0.06419169  0.99512216  0.79652814    -0.23000
C432        C  0.08144178  0.95812430  0.76525792     0.19200
C433        C  0.09315884  0.91262698  0.78839007     0.16400
C434        C  0.08734655  0.90382117  0.84101489    -0.18000
C435        C  0.11372621  0.87823936  0.75897606    -0.19900
C436        C  0.12632732  0.88952563  0.70772279    -0.12400
C437        C  0.11912419  0.93704096  0.68372910     0.04300
C438        C  0.09292973  0.96921485  0.71230452    -0.24600
H439        H  0.04015738  0.01217643  0.87184608     0.09300
H440        H  0.05876973  0.03317218  0.78053571     0.12900
H441        H  0.09800907  0.86945011  0.85799372     0.12900
H442        H  0.12335611  0.84501494  0.77674991     0.12600
H443        H  0.15063812  0.86788974  0.68857412     0.13200
H444        H  0.08920557  0.50816816  0.69506593     0.15100
C445        C  0.13124864  0.93925054  0.31173663    -0.04900
C446        C  0.07809021  0.94668342  0.30856546    -0.04800
C447        C  0.05125396  0.94365547  0.26130527    -0.23000
C448        C  0.07709473  0.93343533  0.21618966     0.19200
C449        C  0.12878906  0.92389795  0.21971902     0.16400
C450        C  0.15318521  0.92312706  0.26723602    -0.18000
C451        C  0.15974957  0.92195815  0.17532964    -0.19900
C452        C  0.13663504  0.92083200  0.12783113    -0.12400
C453        C  0.08419157  0.92800312  0.12286087     0.04300
C454        C  0.05662156  0.93802127  0.16736095    -0.24600
H455        H  0.06102359  0.46069238  0.34190488     0.09300
H456        H  0.01351324  0.95421998  0.25998941     0.12900
H457        H  0.19466926  0.91825977  0.26906977     0.12900
H458        H  0.20109220  0.91919861  0.17749566     0.12600
H459        H  0.16008306  0.91444351  0.09482105     0.13200
H460        H  0.02330874  0.95414686  0.16374692     0.15100
C461        C  0.39507990  0.81398328  0.13026102    -0.04900
C462        C  0.40970399  0.87563554  0.14951624    -0.04800
C463        C  0.41136331  0.88770483  0.20118274    -0.23000
C464        C  0.39727145  0.83791781  0.23499307     0.19200
C465        C  0.38034776  0.77530643  0.21606373     0.16400
C466        C  0.38027284  0.76360304  0.16374630    -0.18000
C467        C  0.36199939  0.72475682  0.24988500    -0.19900
C468        C  0.35399930  0.73310900  0.30082560    -0.12400
C469        C  0.36649156  0.79388116  0.31933595     0.04300
C470        C  0.39346505  0.84780639  0.28709923    -0.24600
H471        H  0.42283341  0.91619312  0.12446794     0.09300
H472        H  0.42304693  0.93582928  0.21447521     0.12900
H473        H  0.36831779  0.71588301  0.14928160     0.12900
H474        H  0.35397446  0.67906872  0.23666257     0.12600
H475        H  0.33144551  0.69036866  0.32465735     0.13200
H476        H  0.40105942  0.89441847  0.30109295     0.16100
C477        C  0.43648391  0.60779659  0.11931152    -0.04900
C478        C  0.43358466  0.56271593  0.15417719    -0.04800
C479        C  0.43592894  0.57532886  0.20578340    -0.23000
C480        C  0.44792704  0.63641721  0.22322762     0.19200
C481        C  0.46414318  0.68709260  0.18838828     0.16400
C482        C  0.45459404  0.67161612  0.13601897    -0.18000
C483        C  0.49052051  0.75138509  0.20725759    -0.19900
C484        C  0.49678742  0.76360645  0.25995570    -0.12400
C485        C  0.47388222  0.71152110  0.29431732     0.04300
C486        C  0.44780952  0.64803344  0.27518930    -0.24600
H487        H  0.42538964  0.51557944  0.14152551     0.09300
H488        H  0.42708397  0.53707507  0.23208183     0.12900
H489        H  0.46184816  0.70840352  0.10889056     0.12900
H490        H  0.50719844  0.79197556  0.18144245     0.12600
H491        H  0.52006405  0.81315753  0.27400715     0.13200
H492        H  0.43489336  0.60846005  0.30143965     0.15100
C493        C  0.40917040  0.59739056  0.87186317    -0.04900
C494        C  0.38137465  0.63349888  0.85733868    -0.04800
C495        C  0.37538992  0.64268803  0.80624557    -0.23000
C496        C  0.39642491  0.61597492  0.76852643     0.19200
C497        C  0.42648085  0.58169749  0.78248634     0.16400
C498        C  0.43327779  0.57300069  0.83402035    -0.18000
C499        C  0.45265195  0.56039569  0.74456489    -0.19900
C500        C  0.44923377  0.57215383  0.69363546    -0.12400
C501        C  0.42536886  0.61194205  0.68021828     0.04300
C502        C  0.39411011  0.62909579  0.71722272    -0.24600
H503        H  0.36145063  0.65196629  0.88547380     0.09300
H504        H  0.35125138  0.66772510  0.79597194     0.12900
H505        H  0.45627814  0.54637692  0.84454041     0.12900
H506        H  0.48062536  0.53950270  0.75431190     0.12600
H507        H  0.47548649  0.56045910  0.66604073     0.13200
H508        H  0.37690949  0.66126982  0.70707044     0.15100
C509        C  0.31136606  0.87581835  0.68549692    -0.04900
C510        C  0.37296815  0.91033171  0.70428779    -0.04800
C511        C  0.38256315  0.91954135  0.75636660    -0.23000
C512        C  0.33181885  0.90168049  0.79007911     0.19200
C513        C  0.26979385  0.86883661  0.77178772     0.16400
C514        C  0.25982587  0.85788209  0.71934287    -0.18000
C515        C  0.21938913  0.83912225  0.80685425    -0.19900
C516        C  0.22879929  0.85146894  0.85887068    -0.12400
C517        C  0.29044405  0.88906535  0.87662253     0.04300
C518        C  0.34180794  0.91076177  0.84223117    -0.24600
H519        H  0.41296605  0.92081444  0.67964560     0.09300
H520        H  0.42936717  0.93661404  0.77075741     0.12900
H521        H  0.21227229  0.82571725  0.70604432     0.12900
H522        H  0.17395206  0.80245960  0.79422071     0.12600
H523        H  0.18865934  0.83134272  0.88492126     0.13200
H524        H  0.38976591  0.93609584  0.85607164     0.15100
C525        C  0.29085771  0.88688766  0.12197719    -0.04900
C526        C  0.30348750  0.93405401  0.15852321    -0.04800
C527        C  0.29769400  0.92021549  0.20959661    -0.23000
C528        C  0.27413715  0.85713991  0.22589905     0.19200
C529        C  0.26147714  0.80738355  0.18990349     0.16400
C530        C  0.27044901  0.82247299  0.13727902    -0.18000
C531        C  0.24074415  0.74447861  0.20782946    -0.19900
C532        C  0.23408094  0.73229616  0.26028803    -0.12400
C533        C  0.24902593  0.78258350  0.29563086     0.04300
C534        C  0.26665656  0.84450912  0.27797474    -0.24600
H535        H  0.31579871  0.98189583  0.14627503     0.09300
H536        H  0.31084153  0.95831836  0.23665267     0.12900
H537        H  0.26246986  0.78537349  0.10927797     0.12900
H538        H  0.23166168  0.70586492  0.18128459     0.12600
H539        H  0.22051169  0.68478579  0.27400843     0.13200
H540        H  0.27979658  0.88412552  0.30498116     0.15100
C541        C  0.07495736  0.69269192  0.32040825    -0.04900
C542        C  0.05502068  0.62774136  0.30759344    -0.04800
C543        C  0.05601921  0.61055152  0.25682936    -0.23000
C544        C  0.08035102  0.65822449  0.21853753     0.19200
C545        C  0.10627457  0.72386229  0.23236676     0.16400
C546        C  0.10658115  0.74124613  0.28351742    -0.18000
C547        C  0.12648996  0.77074286  0.19456238    -0.19900
C548        C  0.12469834  0.75444141  0.14312109    -0.12400
C549        C  0.10067674  0.68930630  0.12839518     0.04300
C550        C  0.07483967  0.64136689  0.16664213    -0.24600
H551        H  0.52940556  0.58934363  0.33507275     0.09300
H552        H  0.03244525  0.55924758  0.24695969     0.12900
H553        H  0.12210927  0.79157666  0.29349862     0.12900
H554        H  0.14696601  0.82020332  0.20615351     0.12600
H555        H  0.14451277  0.79293409  0.11519673     0.13200
H556        H  0.04885771  0.59048995  0.15625605     0.15100
C557        C  0.04744953  0.72074559  0.70129576    -0.04900
C558        C  0.08448460  0.69134072  0.69956221    -0.04800
C559        C  0.09754648  0.66965442  0.74381387    -0.23000
C560        C  0.08093515  0.68370248  0.79162065     0.19200
C561        C  0.04901844  0.71891496  0.79444747     0.16400
C562        C  0.02960939  0.73411351  0.74914991    -0.18000
C563        C  0.03525774  0.73586819  0.84243414    -0.19900
C564        C  0.05436138  0.71954877  0.88696012    -0.12400
C565        C  0.08419007  0.68242983  0.88445929     0.04300
C566        C  0.09523426  0.66299294  0.83645227    -0.24600
H567        H  0.09629801  0.67751723  0.66343768     0.09300
H568        H  0.11648417  0.63807191  0.73964197     0.12900
H569        H  0.99900925  0.75406310  0.75117094     0.12900
H570        H  0.00976093  0.76174401  0.84553695     0.12600
H571        H  0.04473231  0.73477985  0.92331439     0.13200
H572        H  0.11515952  0.63201281  0.83377239     0.15100
C573        C  0.24044669  0.54602784  0.70174810    -0.04900
C574        C  0.22313045  0.59300371  0.70957253    -0.04800
C575        C  0.21412955  0.60907891  0.75789045    -0.23000
C576        C  0.22394953  0.58113645  0.79902973     0.19200
C577        C  0.24097394  0.53332161  0.79282261     0.16400
C578        C  0.25058718  0.51638099  0.74345168    -0.18000
C579        C  0.24471218  0.50237171  0.83620490    -0.19900
C580        C  0.22993966  0.51835732  0.88426534    -0.12400
C581        C  0.21753177  0.56934797  0.88897700     0.04300
C582        C  0.21388250  0.59916837  0.84649217    -0.24600
H583        H  0.20778410  0.61037263  0.67867055     0.09300
H584        H  0.19604970  0.64085855  0.76417984     0.12900
H585        H  0.26110692  0.47772930  0.73732188     0.12900
H586        H  0.25788204  0.46603364  0.83240198     0.12600
H587        H  0.22678736  0.49140899  0.91730639     0.13200
H588        H  0.19900046  0.63412032  0.85096174     0.15100
C589        C  0.25535332  0.55549287  0.30016568    -0.04900
C590        C  0.30073244  0.55323451  0.26927499    -0.04800
C591        C  0.30223140  0.56442253  0.21729238    -0.23000
C592        C  0.26041324  0.57926933  0.19603194     0.19200
C593        C  0.21488182  0.58129688  0.22790136     0.16400
C594        C  0.21569958  0.57486876  0.28005880    -0.18000
C595        C  0.16354893  0.57943184  0.20672722    -0.19900
C596        C  0.15867295  0.57825719  0.15501383    -0.12400
C597        C  0.20812755  0.58750464  0.12332010     0.04300
C598        C  0.26043421  0.58825580  0.14344625    -0.24600
H599        H  0.33160814  0.53862176  0.28533424     0.09300
H600        H  0.33441801  0.56108051  0.19252137     0.12900
H601        H  0.17949861  0.57554125  0.30410545     0.12900
H602        H  0.12433843  0.57018825  0.23022100     0.12600
H603        H  0.11502212  0.56657188  0.13842272     0.13200
H604        H  0.29796362  0.59199157  0.11890254     0.15100
C605        C  0.83299990  0.16629631  0.45241352     0.45800
H606        H  0.83084060  0.16813036  0.41112513    -0.03200
C607        C  0.83389858  0.16423711  0.54749526     0.45900
H608        H  0.83950810  0.16782842  0.58839914    -0.03200
C609        C  0.79268095  0.08992600  0.47382833    -0.16900
C610        C  0.90627045  0.19982034  0.47253223    -0.16700
C611        C  0.80092476  0.20680768  0.47686173    -0.17000
C612        C  0.79292303  0.08955044  0.52612129    -0.17000
C613        C  0.90607428  0.19633782  0.52404346    -0.16600
C614        C  0.79915996  0.20400190  0.52795838    -0.16900
O615        O  0.73153353  0.15493234  0.05276362    -0.71400
O616        O  0.66195917  0.20470085  0.94694830    -0.71700
O617        O  0.66225313  0.21183494  0.05125958    -0.71500
O618        O  0.73121214  0.14608698  0.95201032    -0.71500
O619        O  0.64252285  0.05370921  0.95175246    -0.71500
O620        O  0.57943615  0.11494625  0.05838612    -0.71500
O621        O  0.57348947  0.11230827  0.95345016    -0.71400
O622        O  0.64796262  0.05778579  0.05093951    -0.71600
V623        V  0.69498625  0.17786772  0.00043476     1.35200
V624        V  0.61218065  0.08678336  0.00339523     1.35200
C625        C  0.69954267  0.09843295  0.07112464     0.77800
C626        C  0.60676011  0.16630032  0.93085374     0.77900
C627        C  0.61282788  0.17218790  0.07614881     0.77700
C628        C  0.69805145  0.08863050  0.93507374     0.77700
O629        O  0.86059490  0.42816752  0.05072336    -0.71400
O630        O  0.93025546  0.04732686  0.94071437    -0.71700
O631        O  0.94137333  0.05611627  0.04393302    -0.71500
O632        O  0.85350817  0.42197795  0.94852891    -0.71500
O633        O  0.77592839  0.44044785  0.94987811    -0.71500
O634        O  0.85971844  0.06814276  0.05388307    -0.71500
O635        O  0.85433441  0.06847175  0.95088698    -0.71400
O636        O  0.77807518  0.43894420  0.05205080    -0.71600
V637        V  0.89504825  0.48878227  0.99635022     1.35200
V638        V  0.81864252  0.50400948  0.00169579     1.35200
C639        C  0.80765858  0.41372489  0.07048517     0.77800
C640        C  0.90000501  0.07320012  0.92435759     0.77900
C641        C  0.91388671  0.08105418  0.06828903     0.77700
C642        C  0.80425768  0.41424549  0.92867883     0.77700
O643        O  0.91014289  0.35852254  0.94826536    -0.71400
O644        O  0.51971686  0.43711835  0.05925185    -0.71700
O645        O  0.52860037  0.44752314  0.95395881    -0.71500
O646        O  0.89934122  0.34834280  0.04830401    -0.71500
O647        O  0.93622124  0.28402716  0.05835596    -0.71500
O648        O  0.54030943  0.36376580  0.94090286    -0.71500
O649        O  0.55576449  0.37171484  0.04421405    -0.71400
O650        O  0.92099887  0.27375627  0.95433674    -0.71600
V651        V  0.96522658  0.39706543  0.00255865     1.35200
V652        V  0.98804897  0.32417647  0.99938404     1.35200
C653        C  0.89816272  0.30351011  0.93202406     0.77800
C654        C  0.55379422  0.41411791  0.07268744     0.77900
C655        C  0.54764313  0.41752749  0.92534573     0.77700
C656        C  0.90520206  0.30958927  0.07588564     0.77700
C657        C  0.53009127  0.23104455  0.44928309     0.02600
C658        C  0.96899863  0.22751693  0.43838745     0.02600
C659        C  0.95863076  0.23060751  0.38635521    -0.17900
C660        C  0.99412397  0.22162582  0.34800533     0.02600
C661        C  0.53993221  0.20574789  0.36134720     0.02600
C662        C  0.55205412  0.20364751  0.41228359    -0.17900
H663        H  0.58831247  0.19272343  0.42194472     0.04600
H664        H  0.91945818  0.23475245  0.37509607     0.04600
C665        C  0.79203303  0.25891894  0.44806985     0.02600
C666        C  0.73428303  0.26346267  0.43929252     0.02600
C667        C  0.71956620  0.26268823  0.38778641    -0.17900
C668        C  0.76362722  0.27627811  0.34894581     0.02600
C669        C  0.82507427  0.29167686  0.36102332     0.02600
C670        C  0.83977052  0.28700692  0.41066895    -0.17900
H671        H  0.88603236  0.29391392  0.41791872     0.04600
H672        H  0.67530952  0.25672791  0.37687146     0.04600
C673        C  0.96303621  0.20111982  0.55496807     0.02600
C674        C  0.52914109  0.25594569  0.56511140     0.02600
C675        C  0.54583540  0.26618469  0.61675948    -0.17900
C676        C  0.51428204  0.21875136  0.65369890     0.02600
C677        C  0.95993626  0.16021459  0.64012122     0.02600
C678        C  0.93835462  0.15021489  0.59053878    -0.17900
H679        H  0.89810713  0.10363742  0.58047027     0.04600
H680        H  0.58767420  0.30895142  0.62843993     0.04600
C681        C  0.77011495  0.23753528  0.56325172     0.02600
C682        C  0.75677765  0.29257129  0.55655350     0.02600
C683        C  0.77976002  0.34122112  0.59524542    -0.17900
C684        C  0.80028672  0.33204587  0.64140800     0.02600
C685        C  0.79974540  0.27385808  0.64972349     0.02600
C686        C  0.77694579  0.22514349  0.61344081    -0.17900
H687        H  0.77170456  0.17925992  0.62375669     0.04600
H688        H  0.77727608  0.38519152  0.59136985     0.04600
C689        C  0.75840897  0.02740240  0.56183756     0.02600
C690        C  0.70028125  0.46305222  0.55406427     0.02600
C691        C  0.65134086  0.44288164  0.59132237    -0.17900
C692        C  0.66397037  0.46935936  0.64022431     0.02600
C693        C  0.72681621  0.01549692  0.65154428     0.02600
C694        C  0.77245327  0.04354461  0.61332683    -0.17900
H695        H  0.81703159  0.08313508  0.62521369     0.04600
H696        H  0.60539412  0.40041547  0.58440730     0.04600
C697        C  0.76080985  0.02677693  0.43794996     0.02600
C698        C  0.70294586  0.46001915  0.44305553     0.02600
C699        C  0.65881219  0.43826337  0.40326402    -0.17900
C700        C  0.67525538  0.46761551  0.35585234     0.02600
C701        C  0.73716390  0.02103657  0.34846842     0.02600
C702        C  0.78031915  0.04502650  0.38768351    -0.17900
H703        H  0.82778846  0.08453028  0.37917221     0.04600
H704        H  0.61342092  0.39349595  0.40725310     0.04600
C705        C  0.66469508  0.33097537  0.54886104     0.45800
H706        H  0.66980106  0.33490336  0.59018090    -0.03200
C707        C  0.66023383  0.32489399  0.45338008     0.45900
H708        H  0.65786227  0.32528544  0.41179850    -0.03200
C709        C  0.59074789  0.28910632  0.52981830    -0.16900
C710        C  0.69448447  0.40288776  0.52517587    -0.16700
C711        C  0.70546702  0.29845121  0.52551383    -0.17000
C712        C  0.58921976  0.28431932  0.47835695    -0.17000
C713        C  0.69281212  0.40016367  0.47422616    -0.16600
C714        C  0.70098120  0.29276299  0.47400200    -0.16900
C715        C  0.82487967  0.26489522  0.69687316    -0.04900
C716        C  0.88992537  0.28827003  0.70054311    -0.04800
C717        C  0.91755715  0.30035562  0.74810278    -0.23000
C718        C  0.87984120  0.28539596  0.79214635     0.19200
C719        C  0.81434807  0.26057762  0.78816534     0.16400
C720        C  0.78784147  0.25147812  0.74058907    -0.18000
C721        C  0.77723373  0.25035615  0.83177698    -0.19900
C722        C  0.80380263  0.26126670  0.87937296    -0.12400
C723        C  0.86760318  0.28153890  0.88366993     0.04300
C724        C  0.90607068  0.29551520  0.84013077    -0.24600
H725        H  0.91993316  0.30273245  0.66686184     0.09300
H726        H  0.96840730  0.32457157  0.75043561     0.12900
H727        H  0.73898352  0.23889041  0.73722900     0.12900
H728        H  0.72775920  0.23516712  0.82895854     0.12600
H729        H  0.77553959  0.25697266  0.91264997     0.13200
H730        H  0.95650652  0.31647367  0.84372548     0.15100
C731        C  0.56753597  0.43854525  0.87202957    -0.04900
C732        C  0.55621927  0.48480661  0.84923205    -0.04800
C733        C  0.56434226  0.49525977  0.79660724    -0.23000
C734        C  0.58153074  0.45822536  0.76532267     0.19200
C735        C  0.59323965  0.41271748  0.78844282     0.16400
C736        C  0.58743713  0.40390882  0.84107211    -0.18000
C737        C  0.61380064  0.37833208  0.75901227    -0.19900
C738        C  0.62635074  0.38959803  0.70774912    -0.12400
C739        C  0.61913798  0.43711244  0.68376635     0.04300
C740        C  0.59298176  0.46930568  0.71236472    -0.24600
H741        H  0.54034038  0.51233147  0.87192900     0.09300
H742        H  0.55899739  0.53336390  0.78063129     0.12900
H743        H  0.59810821  0.36954375  0.85804744     0.12900
H744        H  0.62345613  0.34512013  0.77676947     0.12600
H745        H  0.65064221  0.36795237  0.68858153     0.13200
H746        H  0.58914949  0.00806923  0.69499522     0.15100
C747        C  0.63127602  0.43926256  0.31178047    -0.04900
C748        C  0.57809720  0.44666453  0.30862949    -0.04800
C749        C  0.55123704  0.44362209  0.26137792    -0.23000
C750        C  0.57707860  0.43342349  0.21625266     0.19200
C751        C  0.62879435  0.42391123  0.21976554     0.16400
C752        C  0.65320486  0.42314623  0.26727382    -0.18000
C753        C  0.65976170  0.42200269  0.17537037    -0.19900
C754        C  0.63663715  0.42088609  0.12787930    -0.12400
C755        C  0.58417338  0.42803060  0.12292355     0.04300
C756        C  0.55659502  0.43801737  0.16743141    -0.24600
H757        H  0.56101700  0.96072335  0.34183024     0.09300
H758        H  0.51347838  0.45416171  0.26007579     0.12900
H759        H  0.69469920  0.41829458  0.26909472     0.12900
H760        H  0.70112475  0.41926330  0.17752353     0.12600
H761        H  0.66008960  0.41452550  0.09486068     0.13200
H762        H  0.52327279  0.45413332  0.16382919     0.15100
C763        C  0.89502101  0.31395631  0.13029815    -0.04900
C764        C  0.90967143  0.37560716  0.14957153    -0.04800
C765        C  0.91133346  0.38765901  0.20124070    -0.23000
C766        C  0.89721271  0.33785504  0.23503976     0.19200
C767        C  0.88023756  0.27523490  0.21609740     0.16400
C768        C  0.88016092  0.26354760  0.16377395    -0.18000
C769        C  0.86185202  0.22466906  0.24991281    -0.19900
C770        C  0.85386938  0.23302556  0.30085783    -0.12400
C771        C  0.86640968  0.29381140  0.31937593     0.04300
C772        C  0.89342274  0.34774171  0.28714772    -0.24600
H773        H  0.92282602  0.41617933  0.12453379     0.09300
H774        H  0.92304483  0.43578703  0.21454419     0.12900
H775        H  0.86816690  0.21582080  0.14929855     0.12900
H776        H  0.85376906  0.17896155  0.23668205     0.12600
H777        H  0.83129692  0.19028672  0.32468984     0.13200
H778        H  0.90105609  0.39436542  0.30114958     0.16100
C779        C  0.93625523  0.10771788  0.11936425    -0.04900
C780        C  0.93337529  0.06265726  0.15423884    -0.04800
C781        C  0.93571624  0.07528641  0.20584169    -0.23000
C782        C  0.94772796  0.13638466  0.22326869     0.19200
C783        C  0.96397319  0.18705311  0.18841502     0.16400
C784        C  0.95440172  0.17155357  0.13605052    -0.18000
C785        C  0.99041136  0.25136032  0.20726509    -0.19900
C786        C  0.99670431  0.26360407  0.25995902    -0.12400
C787        C  0.97377503  0.21153193  0.29433494     0.04300
C788        C  0.94763868  0.14802896  0.27522763    -0.24600
H789        H  0.92521251  0.01553008  0.14159522     0.09300
H790        H  0.92687798  0.03704341  0.23214947     0.12900
H791        H  0.96167731  0.20833606  0.10891011     0.12900
H792        H  0.00711732  0.29194358  0.18143865     0.12600
H793        H  0.02003249  0.31316191  0.27399673     0.13200
H794        H  0.93470137  0.10846152  0.30148949     0.15100
C795        C  0.90909442  0.09755145  0.87197171    -0.04900
C796        C  0.88130185  0.13367254  0.85747651    -0.04800
C797        C  0.87530130  0.14287685  0.80638817    -0.23000
C798        C  0.89633878  0.11619013  0.76864848     0.19200
C799        C  0.92634798  0.08186015  0.78258704     0.16400
C800        C  0.93316420  0.07315155  0.83411111    -0.18000
C801        C  0.95244101  0.06049283  0.74465525    -0.19900
C802        C  0.94899845  0.07224127  0.69372764    -0.12400
C803        C  0.92522059  0.11211085  0.68032369     0.04300
C804        C  0.89403562  0.12933958  0.71734675    -0.24600
H805        H  0.86136695  0.15210842  0.88562835     0.09300
H806        H  0.85111126  0.16786212  0.79613470     0.12900
H807        H  0.95613282  0.04648877  0.84461058     0.12900
H808        H  0.98041250  0.03959355  0.75439886     0.12600
H809        H  0.97519441  0.06048698  0.66612114     0.13200
H810        H  0.87687489  0.16154899  0.70720463     0.15100
C811        C  0.81112726  0.37572626  0.68558177    -0.04900
C812        C  0.87273795  0.41028805  0.70434984    -0.04800
C813        C  0.88236106  0.41950253  0.75642519    -0.23000
C814        C  0.83163434  0.40160804  0.79015846     0.19200
C815        C  0.76959752  0.36871179  0.77189712     0.16400
C816        C  0.75959745  0.35773928  0.71945406    -0.18000
C817        C  0.71922590  0.33897555  0.80699349    -0.19900
C818        C  0.72867187  0.35135944  0.85900492    -0.12400
C819        C  0.79032660  0.38899956  0.87672187     0.04300
C820        C  0.84166259  0.41070823  0.84230406    -0.24600
H821        H  0.91273097  0.42080024  0.67969155     0.09300
H822        H  0.92917384  0.43658634  0.77080144     0.12900
H823        H  0.71204161  0.32553394  0.70617639     0.12900
H824        H  0.67378583  0.30229869  0.79438776     0.12600
H825        H  0.68855385  0.33122983  0.88507668     0.13200
H826        H  0.88963072  0.43607009  0.85612088     0.15100
C827        C  0.79090040  0.38703597  0.12205228    -0.04900
C828        C  0.80358282  0.43419614  0.15861794    -0.04800
C829        C  0.79776624  0.42031713  0.20968511    -0.23000
C830        C  0.77414267  0.35721851  0.22596187     0.19200
C831        C  0.76143824  0.30747238  0.18994513     0.16400
C832        C  0.77042258  0.32259599  0.13732778    -0.18000
C833        C  0.74066092  0.24454471  0.20784396    -0.19900
C834        C  0.73399444  0.23232868  0.26029779    -0.12400
C835        C  0.74897740  0.28260317  0.29566202     0.04300
C836        C  0.76665611  0.34455325  0.27803216    -0.24600
H837        H  0.81596781  0.48206445  0.14638765     0.09300
H838        H  0.81098452  0.45841172  0.23675904     0.12900
H839        H  0.76240078  0.28550061  0.10930909     0.12900
H840        H  0.73154091  0.20593515  0.18128140     0.12600
H841        H  0.72038628  0.18479790  0.27399543     0.13200
H842        H  0.77982939  0.38415923  0.30505520     0.15100
C843        C  0.57484767  0.19268101  0.32037928    -0.04900
C844        C  0.55486198  0.12771967  0.30755763    -0.04800
C845        C  0.55583181  0.11052162  0.25679069    -0.23000
C846        C  0.58016866  0.15819260  0.21849748     0.19200
C847        C  0.60614819  0.22383719  0.23232864     0.16400
C848        C  0.60648225  0.24122803  0.28348256    -0.18000
C849        C  0.62641114  0.27072553  0.19452425    -0.19900
C850        C  0.62460611  0.25441704  0.14308421    -0.12400
C851        C  0.60051933  0.18927270  0.12835685     0.04300
C852        C  0.57463692  0.14133163  0.16660145    -0.24600
H853        H  0.02924633  0.08933057  0.33504158     0.09300
H854        H  0.53225655  0.05921685  0.24692127     0.12900
H855        H  0.62205133  0.29156705  0.29346485     0.12900
H856        H  0.64694882  0.32019562  0.20611057     0.12600
H857        H  0.64446590  0.29291192  0.11516131     0.13200
H858        H  0.54864158  0.09045334  0.15621412     0.15100
C859        C  0.54736771  0.22081890  0.70132863    -0.04900
C860        C  0.58429609  0.19129130  0.69959638    -0.04800
C861        C  0.59731335  0.16957060  0.74385091    -0.23000
C862        C  0.58075420  0.18368661  0.79165047     0.19200
C863        C  0.54894896  0.21901289  0.79447376     0.16400
C864        C  0.52958876  0.23426187  0.74917804    -0.18000
C865        C  0.53525683  0.23604014  0.84245618    -0.19900
C866        C  0.55435278  0.21971142  0.88697929    -0.12400
C867        C  0.58406931  0.18248503  0.88447657     0.04300
C868        C  0.59501519  0.16294862  0.83648049    -0.24600
H869        H  0.59605061  0.17740550  0.66347412     0.09300
H870        H  0.61617471  0.13791662  0.73969581     0.12900
H871        H  0.49907618  0.25431724  0.75119707     0.12900
H872        H  0.50983023  0.26198856  0.84555657     0.12600
H873        H  0.54480124  0.23501533  0.92333163     0.13200
H874        H  0.61483755  0.13187377  0.83380862     0.15100
C875        C  0.74042458  0.04597311  0.70172056    -0.04900
C876        C  0.72305355  0.09291163  0.70950547    -0.04800
C877        C  0.71398488  0.10897663  0.75780522    -0.23000
C878        C  0.72381980  0.08107933  0.79896919     0.19200
C879        C  0.74094354  0.03333381  0.79280273     0.16400
C880        C  0.75059282  0.01638086  0.74344646    -0.18000
C881        C  0.74475660  0.00246872  0.83620988    -0.19900
C882        C  0.72995840  0.01846512  0.88425613    -0.12400
C883        C  0.71740090  0.06935500  0.88892220     0.04300
C884        C  0.71367747  0.09909315  0.84641409    -0.24600
H885        H  0.70768586  0.11022798  0.67858278     0.09300
H886        H  0.69583031  0.14069893  0.76405127     0.12900
H887        H  0.76116929  0.97776582  0.73734513     0.12900
H888        H  0.75804926  0.96621909  0.83244316     0.12600
H889        H  0.72693839  0.99162348  0.91732846     0.13200
H890        H  0.69871650  0.13398520  0.85084864     0.15100
C891        C  0.75525985  0.05550865  0.30011126    -0.04900
C892        C  0.80057599  0.05316296  0.26919708    -0.04800
C893        C  0.80203869  0.06431147  0.21721089    -0.23000
C894        C  0.76024353  0.07920019  0.19596447     0.19200
C895        C  0.71475684  0.08129482  0.22784707     0.16400
C896        C  0.71560158  0.07488653  0.28000806    -0.18000
C897        C  0.66343959  0.07948257  0.20668418    -0.19900
C898        C  0.65853917  0.07828906  0.15496918    -0.12400
C899        C  0.70795213  0.08744612  0.12326328     0.04300
C900        C  0.76023894  0.08815249  0.14337806    -0.24600
H901        H  0.83143328  0.03851792  0.28524531     0.09300
H902        H  0.83416962  0.06088892  0.19242652     0.12900
H903        H  0.67942463  0.07558894  0.30406618     0.12900
H904        H  0.62425786  0.07030219  0.23019123     0.12600
H905        H  0.61489865  0.06664875  0.13838509     0.13200
H906        H  0.79773728  0.09183702  0.11882586     0.15100
C907        C  0.83304982  0.66627376  0.45239573     0.45800
H908        H  0.83088900  0.66808693  0.41110345    -0.03200
C909        C  0.83396138  0.66424093  0.54747999     0.45900
H910        H  0.83958347  0.66784654  0.58838328    -0.03200
C911        C  0.79271718  0.58991283  0.47383374    -0.16900
C912        C  0.90632154  0.69979509  0.47251207    -0.16700
C913        C  0.80098983  0.70680426  0.47683442    -0.17000
C914        C  0.79296152  0.58955173  0.52612495    -0.17000
C915        C  0.90613095  0.69631964  0.52402259    -0.16600
C916        C  0.79923110  0.70400855  0.52793198    -0.16900
O917        O  0.73169131  0.65498681  0.05280585    -0.71400
O918        O  0.66207718  0.70468546  0.94695937    -0.71700
O919        O  0.66239309  0.71187086  0.05128235    -0.71500
O920        O  0.73134778  0.64609622  0.95204913    -0.71500
O921        O  0.64267756  0.55369531  0.95183023    -0.71500
O922        O  0.57958026  0.61498258  0.05841979    -0.71500
O923        O  0.57362524  0.61228111  0.95346966    -0.71400
O924        O  0.64812232  0.55783768  0.05100675    -0.71600
V925        V  0.69512388  0.67788890  0.00046373     1.35200
V926        V  0.61232840  0.58679774  0.00344495     1.35200
C927        C  0.69970772  0.59849326  0.07118099     0.77800
C928        C  0.60688698  0.66626323  0.93085416     0.77900
C929        C  0.61297461  0.67222554  0.07617962     0.77700
C930        C  0.69819682  0.58862403  0.93513540     0.77700
O931        O  0.86057395  0.92811883  0.05067134    -0.71400
O932        O  0.93031419  0.54721031  0.94066073    -0.71700
O933        O  0.94151715  0.55612534  0.04388809    -0.71500
O934        O  0.85358100  0.92205708  0.94846458    -0.71500
O935        O  0.77591546  0.94039781  0.94980054    -0.71500
O936        O  0.85996317  0.56832695  0.05382731    -0.71500
O937        O  0.85448278  0.56849182  0.95081967    -0.71400
O938        O  0.77795568  0.93872390  0.05197121    -0.71600
V939        V  0.89500610  0.98880991  0.99634570     1.35200
V940        V  0.81851032  0.00389129  0.00168820     1.35200
C941        C  0.80759688  0.91357025  0.07040883     0.77800
C942        C  0.90010047  0.57311080  0.92427660     0.77900
C943        C  0.91410274  0.58115011  0.06823510     0.77700
C944        C  0.80432471  0.91428395  0.92859330     0.77700
O945        O  0.91010815  0.85846515  0.94823614    -0.71400
O946        O  0.51972968  0.93708297  0.05919382    -0.71700
O947        O  0.52856986  0.94746481  0.95390428    -0.71500
O948        O  0.89934708  0.84831368  0.04826561    -0.71500
O949        O  0.93623828  0.78400852  0.05832611    -0.71500
O950        O  0.54026156  0.86369761  0.94084205    -0.71500
O951        O  0.55577738  0.87168116  0.04414784    -0.71400
O952        O  0.92095962  0.77369598  0.95432068    -0.71600
V953        V  0.96521635  0.89702163  0.00251383     1.35200
V954        V  0.98803544  0.82413031  0.99933974     1.35200
C955        C  0.89811862  0.80344378  0.93200699     0.77800
C956        C  0.55381281  0.91408636  0.07262305     0.77900
C957        C  0.54758818  0.91745636  0.92528394     0.77700
C958        C  0.90522715  0.80958023  0.07585344     0.77700
C959        C  0.53014176  0.73102031  0.44928019     0.02600
C960        C  0.96905302  0.72749440  0.43837226     0.02600
C961        C  0.95869707  0.73058659  0.38633787    -0.17900
C962        C  0.99420279  0.72160587  0.34799812     0.02600
C963        C  0.54000540  0.70572635  0.36135796     0.02600
C964        C  0.55210553  0.70361317  0.41229515    -0.17900
H965        H  0.58836949  0.69269916  0.42196306     0.04600
H966        H  0.91952429  0.73472718  0.37507172     0.04600
C967        C  0.79209867  0.75891316  0.44803463     0.02600
C968        C  0.73435354  0.76347219  0.43926502     0.02600
C969        C  0.71963529  0.76270269  0.38776149    -0.17900
C970        C  0.76369593  0.77630417  0.34891832     0.02600
C971        C  0.82514718  0.79171254  0.36099050     0.02600
C972        C  0.83983510  0.78700049  0.41063070    -0.17900
H973        H  0.88609303  0.79389402  0.41787389     0.04600
H974        H  0.67537203  0.75672807  0.37685411     0.04600
C975        C  0.96309167  0.70108047  0.55493562     0.02600
C976        C  0.52919593  0.75590734  0.56508829     0.02600
C977        C  0.54588933  0.76612090  0.61673414    -0.17900
C978        C  0.51436703  0.71864795  0.65365119     0.02600
C979        C  0.96005735  0.66008781  0.64004330     0.02600
C980        C  0.93842036  0.65014390  0.59048025    -0.17900
H981        H  0.89813858  0.60358456  0.58041936     0.04600
H982        H  0.58771489  0.80889871  0.62841980     0.04600
C983        C  0.77019029  0.73754440  0.56322068     0.02600
C984        C  0.75685721  0.79258197  0.55652014     0.02600
C985        C  0.77987849  0.84125163  0.59519603    -0.17900
C986        C  0.80049651  0.83212212  0.64133320     0.02600
C987        C  0.79994259  0.77392722  0.64965839     0.02600
C988        C  0.77705195  0.72517441  0.61340683    -0.17900
H989        H  0.77176526  0.67927240  0.62373442     0.04600
H990        H  0.77736699  0.88520732  0.59132887     0.04600
C991        C  0.75841373  0.52741941  0.56185653     0.02600
C992        C  0.70028969  0.96303302  0.55403245     0.02600
C993        C  0.65134568  0.94283864  0.59128865    -0.17900
C994        C  0.66397275  0.96929006  0.64019769     0.02600
C995        C  0.72681458  0.51557498  0.65156064     0.02600
C996        C  0.77245822  0.54358732  0.61334210    -0.17900
H997        H  0.81706291  0.58315107  0.62521808     0.04600
H998        H  0.60540190  0.90037125  0.58436622     0.04600
C999        C  0.76084443  0.52674544  0.43798377     0.02600
C1000       C  0.70295639  0.96000525  0.44300926     0.02600
C1001       C  0.65882078  0.93822310  0.40321270    -0.17900
C1002       C  0.67522252  0.96761279  0.35581174     0.02600
C1003       C  0.73722962  0.52099022  0.34850561     0.02600
C1004       C  0.78038240  0.54495280  0.38772110    -0.17900
H1005       H  0.82786426  0.58443958  0.37921762     0.04600
H1006       H  0.61345488  0.89342477  0.40719162     0.04600
C1007       C  0.66475593  0.83097328  0.54883766     0.45800
H1008       H  0.66986676  0.83490611  0.59015830    -0.03200
C1009       C  0.66028409  0.82488725  0.45335692     0.45900
H1010       H  0.65790521  0.82526984  0.41177591    -0.03200
C1011       C  0.59080615  0.78909087  0.52979929    -0.16900
C1012       C  0.69452576  0.90288432  0.52514634    -0.16700
C1013       C  0.70553533  0.79845643  0.52548877    -0.17000
C1014       C  0.58927340  0.78430778  0.47833995    -0.17000
C1015       C  0.69284851  0.90016063  0.47419454    -0.16600
C1016       C  0.70104573  0.79276727  0.47397732    -0.16900
C1017       C  0.82502909  0.76493565  0.69682446    -0.04900
C1018       C  0.89005613  0.78823310  0.70053135    -0.04800
C1019       C  0.91763656  0.80025359  0.74810897    -0.23000
C1020       C  0.87988643  0.78531044  0.79213130     0.19200
C1021       C  0.81441699  0.76059041  0.78811238     0.16400
C1022       C  0.78796040  0.75154009  0.74051947    -0.18000
C1023       C  0.77728011  0.75041429  0.83170256    -0.19900
C1024       C  0.80380204  0.76128511  0.87931522    -0.12400
C1025       C  0.86757696  0.78146986  0.88364850     0.04300
C1026       C  0.90606634  0.79538029  0.84013068    -0.24600
H1027       H  0.92009405  0.80268156  0.66686762     0.09300
H1028       H  0.96847877  0.82441401  0.75047331     0.12900
H1029       H  0.73911445  0.73898456  0.73712952     0.12900
H1030       H  0.72781881  0.73526323  0.82885604     0.12600
H1031       H  0.77552374  0.75701323  0.91257625     0.13200
H1032       H  0.95648891  0.81627037  0.84375401     0.15100
C1033       C  0.56744105  0.93845367  0.87196278    -0.04900
C1034       C  0.55607436  0.98467680  0.84915554    -0.04800
C1035       C  0.56419137  0.99512015  0.79652803    -0.23000
C1036       C  0.58144179  0.95812288  0.76525752     0.19200
C1037       C  0.59315928  0.91262559  0.78838931     0.16400
C1038       C  0.58734712  0.90381938  0.84101414    -0.18000
C1039       C  0.61372668  0.87823833  0.75897483    -0.19900
C1040       C  0.62632776  0.88952521  0.70772166    -0.12400
C1041       C  0.61912425  0.93704052  0.68372840     0.04300
C1042       C  0.59292957  0.96921389  0.71230416    -0.24600
H1043       H  0.54015714  0.01217381  0.87184611     0.09300
H1044       H  0.55876851  0.03316975  0.78053584     0.12900
H1045       H  0.59800995  0.86944841  0.85799273     0.12900
H1046       H  0.62335669  0.84501365  0.77674803     0.12600
H1047       H  0.65063874  0.86788974  0.68857266     0.13200
H1048       H  0.58920536  0.50816826  0.69506578     0.15100
C1049       C  0.63124927  0.93924966  0.31173587    -0.04900
C1050       C  0.57809044  0.94668182  0.30856458    -0.04800
C1051       C  0.55125427  0.94365365  0.26130434    -0.23000
C1052       C  0.57709536  0.93343377  0.21618883     0.19200
C1053       C  0.62879008  0.92389692  0.21971826     0.16400
C1054       C  0.65318628  0.92312651  0.26723534    -0.18000
C1055       C  0.65975046  0.92195690  0.17532886    -0.19900
C1056       C  0.63663589  0.92083063  0.12783037    -0.12400
C1057       C  0.58419223  0.92800154  0.12286012     0.04300
C1058       C  0.55662205  0.93801939  0.16736016    -0.24600
H1059       H  0.56102304  0.46069005  0.34190364     0.09300
H1060       H  0.51351341  0.95421792  0.25998832     0.12900
H1061       H  0.69467063  0.91825976  0.26906922     0.12900
H1062       H  0.70109297  0.91919698  0.17749478     0.12600
H1063       H  0.66008377  0.91444209  0.09482027     0.13200
H1064       H  0.52330873  0.95414432  0.16374613     0.15100
C1065       C  0.89507991  0.81398421  0.13026134    -0.04900
C1066       C  0.90970428  0.87563645  0.14951677    -0.04800
C1067       C  0.91136340  0.88770548  0.20118331    -0.23000
C1068       C  0.89727129  0.83791826  0.23499350     0.19200
C1069       C  0.88034781  0.77530703  0.21606397     0.16400
C1070       C  0.88027295  0.76360386  0.16374651    -0.18000
C1071       C  0.86199966  0.72475736  0.24988511    -0.19900
C1072       C  0.85399941  0.73310917  0.30082575    -0.12400
C1073       C  0.86649128  0.79388115  0.31933625     0.04300
C1074       C  0.89346463  0.84780654  0.28709967    -0.24600
H1075       H  0.92283396  0.91619421  0.12446860     0.09300
H1076       H  0.92304694  0.93582985  0.21447594     0.12900
H1077       H  0.86831801  0.71588391  0.14928168     0.12900
H1078       H  0.85397518  0.67906956  0.23666249     0.12600
H1079       H  0.83144595  0.69036875  0.32465743     0.13200
H1080       H  0.90105876  0.89441846  0.30109352     0.16100
C1081       C  0.93648635  0.60779986  0.11931256    -0.04900
C1082       C  0.93358651  0.56271887  0.15417816    -0.04800
C1083       C  0.93593010  0.57533139  0.20578439    -0.23000
C1084       C  0.94792828  0.63641974  0.22322866     0.19200
C1085       C  0.96414473  0.68709535  0.18838943     0.16400
C1086       C  0.95459607  0.67161921  0.13602012    -0.18000
C1087       C  0.99052182  0.75138776  0.20725881    -0.19900
C1088       C  0.99678832  0.76360889  0.25995692    -0.12400
C1089       C  0.97388314  0.71152338  0.29431832     0.04300
C1090       C  0.94781051  0.64803577  0.27519028    -0.24600
H1091       H  0.92539161  0.51558243  0.14152641     0.09300
H1092       H  0.92708475  0.53707739  0.23208272     0.12900
H1093       H  0.96185027  0.70840674  0.10889181     0.12900
H1094       H  0.00719982  0.79197828  0.18144370     0.12600
H1095       H  0.02006468  0.81315989  0.27400853     0.13200
H1096       H  0.93489431  0.60846231  0.30144056     0.15100
C1097       C  0.90917112  0.59739247  0.87186426    -0.04900
C1098       C  0.88137530  0.63350069  0.85733960    -0.04800
C1099       C  0.87539044  0.64268956  0.80624645    -0.23000
C1100       C  0.89642530  0.61597615  0.76852738     0.19200
C1101       C  0.92648126  0.58169882  0.78248742     0.16400
C1102       C  0.93327850  0.57300246  0.83402149    -0.18000
C1103       C  0.95265203  0.56039652  0.74456597    -0.19900
C1104       C  0.94923387  0.57215459  0.69363651    -0.12400
C1105       C  0.92536902  0.61194281  0.68021924     0.04300
C1106       C  0.89411034  0.62909675  0.71722364    -0.24600
H1107       H  0.86145137  0.65196827  0.88547464     0.09300
H1108       H  0.85125197  0.66772669  0.79597275     0.12900
H1109       H  0.95627896  0.54637886  0.84454167     0.12900
H1110       H  0.98062504  0.53950314  0.75431297     0.12600
H1111       H  0.97548642  0.56045967  0.66604178     0.13200
H1112       H  0.87690976  0.66127075  0.70707121     0.15100
C1113       C  0.81136182  0.87581725  0.68549905    -0.04900
C1114       C  0.87296416  0.91033259  0.70428929    -0.04800
C1115       C  0.88255998  0.91954291  0.75636796    -0.23000
C1116       C  0.83181617  0.90168120  0.79008109     0.19200
C1117       C  0.76979075  0.86883552  0.77179055     0.16400
C1118       C  0.75982190  0.85787971  0.71934575    -0.18000
C1119       C  0.71938696  0.83912112  0.80685799    -0.19900
C1120       C  0.72879819  0.85146927  0.85887419    -0.12400
C1121       C  0.79044324  0.88906685  0.87662510     0.04300
C1122       C  0.84180640  0.91076345  0.84223300    -0.24600
H1123       H  0.91296207  0.92081640  0.67964675     0.09300
H1124       H  0.92936437  0.93661637  0.77075823     0.12900
H1125       H  0.71226825  0.82571338  0.70604791     0.12900
H1126       H  0.67394978  0.80245745  0.79422558     0.12600
H1127       H  0.68865883  0.83134294  0.88492537     0.13200
H1128       H  0.88976469  0.93609842  0.85607282     0.15100
C1129       C  0.79085927  0.88689023  0.12197916    -0.04900
C1130       C  0.80348987  0.93405621  0.15852572    -0.04800
C1131       C  0.79769528  0.92021666  0.20959893    -0.23000
C1132       C  0.77413724  0.85714055  0.22590058     0.19200
C1133       C  0.76147705  0.80738462  0.18990448     0.16400
C1134       C  0.77044929  0.82247502  0.13728022    -0.18000
C1135       C  0.74074368  0.74447925  0.20782974    -0.19900
C1136       C  0.73408038  0.73229600  0.26028818    -0.12400
C1137       C  0.74902530  0.78258290  0.29563148     0.04300
C1138       C  0.76665599  0.84450877  0.27797604    -0.24600
H1139       H  0.81580174  0.98189827  0.14627797     0.09300
H1140       H  0.81084314  0.95831919  0.23665544     0.12900
H1141       H  0.76246950  0.78537578  0.10927870     0.12900
H1142       H  0.73166098  0.70586577  0.18128448     0.12600
H1143       H  0.72051099  0.68478535  0.27400807     0.13200
H1144       H  0.77979603  0.88412478  0.30498287     0.15100
C1145       C  0.57495671  0.69269021  0.32040772    -0.04900
C1146       C  0.55501978  0.62773958  0.30759276    -0.04800
C1147       C  0.55601816  0.61054984  0.25682861    -0.23000
C1148       C  0.58034995  0.65822285  0.21853679     0.19200
C1149       C  0.60627366  0.72386065  0.23236616     0.16400
C1150       C  0.60658048  0.74124441  0.28351688    -0.18000
C1151       C  0.62648926  0.77074132  0.19456185    -0.19900
C1152       C  0.62469774  0.75444003  0.14312052    -0.12400
C1153       C  0.60067585  0.68930493  0.12839444     0.04300
C1154       C  0.57483864  0.64136540  0.16664133    -0.24600
H1155       H  0.02940649  0.58934545  0.33507349     0.09300
H1156       H  0.53244406  0.55924591  0.24695886     0.12900
H1157       H  0.62210881  0.79157497  0.29349819     0.12900
H1158       H  0.64696556  0.82020177  0.20615307     0.12600
H1159       H  0.64451242  0.79293280  0.11519624     0.13200
H1160       H  0.54885679  0.59048845  0.15625516     0.15100
C1161       C  0.54744930  0.72074478  0.70129497    -0.04900
C1162       C  0.58448423  0.69133977  0.69956144    -0.04800
C1163       C  0.59754594  0.66965324  0.74381310    -0.23000
C1164       C  0.58093433  0.68370107  0.79161986     0.19200
C1165       C  0.54901766  0.71891357  0.79444663     0.16400
C1166       C  0.52960895  0.73411245  0.74914909    -0.18000
C1167       C  0.53525677  0.73586671  0.84243327    -0.19900
C1168       C  0.55436032  0.71954728  0.88695924    -0.12400
C1169       C  0.58418903  0.68242843  0.88445846     0.04300
C1170       C  0.59523337  0.66299149  0.83645150    -0.24600
H1171       H  0.59629770  0.67751637  0.66343689     0.09300
H1172       H  0.61648350  0.63807062  0.73964122     0.12900
H1173       H  0.49900890  0.75406207  0.75117010     0.12900
H1174       H  0.50976007  0.76174260  0.84553604     0.12600
H1175       H  0.54473122  0.73477841  0.92331349     0.13200
H1176       H  0.61515888  0.63201159  0.83377176     0.15100
C1177       C  0.74044643  0.54602748  0.70174713    -0.04900
C1178       C  0.72313042  0.59300352  0.70957147    -0.04800
C1179       C  0.71412983  0.60907902  0.75788937    -0.23000
C1180       C  0.72395023  0.58113693  0.79902868     0.19200
C1181       C  0.74097462  0.53332206  0.79282165     0.16400
C1182       C  0.75058728  0.51638094  0.74345073    -0.18000
C1183       C  0.74471292  0.50237235  0.83620403    -0.19900
C1184       C  0.72994047  0.51835811  0.88426443    -0.12400
C1185       C  0.71753264  0.56934883  0.88897599     0.04300
C1186       C  0.71388330  0.59916907  0.84649108    -0.24600
H1187       H  0.70778398  0.61037234  0.67866945     0.09300
H1188       H  0.69604972  0.64085839  0.76417877     0.12900
H1189       H  0.76110687  0.47772912  0.73732097     0.12900
H1190       H  0.75788242  0.46603401  0.83240120     0.12600
H1191       H  0.72678793  0.49140968  0.91730544     0.13200
H1192       H  0.69900092  0.63412075  0.85096050     0.15100
C1193       C  0.75535238  0.55549293  0.30016495    -0.04900
C1194       C  0.80073249  0.55323609  0.26927453    -0.04800
C1195       C  0.80223175  0.56442438  0.21729193    -0.23000
C1196       C  0.76041281  0.57926999  0.19603129     0.19200
C1197       C  0.71488055  0.58129623  0.22790044     0.16400
C1198       C  0.71569790  0.57486780  0.28005787    -0.18000
C1199       C  0.66354735  0.57943031  0.20672600    -0.19900
C1200       C  0.65867180  0.57825579  0.15501256    -0.12400
C1201       C  0.70812710  0.58750456  0.12331918     0.04300
C1202       C  0.76043416  0.58825682  0.14344563    -0.24600
H1203       H  0.83160921  0.53862488  0.28533402     0.09300
H1204       H  0.83441998  0.56108489  0.19252123     0.12900
H1205       H  0.67949637  0.57553946  0.30410430     0.12900
H1206       H  0.62433632  0.57018551  0.23021948     0.12600
H1207       H  0.61502076  0.56656964  0.13842123     0.13200
H1208       H  0.79796419  0.59199376  0.11890213     0.15100
loop_ 
_geom_bond_atom_site_label_1 
_geom_bond_atom_site_label_2 
_geom_bond_distance 
_geom_bond_site_symmetry_2 
_ccdc_geom_bond_type 
C1            H2   1.096       .  S
C1            C7   1.638       .  S
C1            C6   1.650       .  S
C1            C5   1.666       .  S
C3            H4   1.089       .  S
C3            C9   1.640       .  S
C3            C8   1.630       .  S
C3           C10   1.656       .  S
C5            C8   1.382       .  D
C5           C93   1.598       .  S
C6            C9   1.365       .  D
C6           C54   1.593       .  S
C7           C10   1.352       .  D
C7           C61   1.573       .  S
C8           C85   1.590       .  S
C9           C69   1.588       .  S
C10          C77   1.590       .  S
O11          V19   1.896       .  S
O11          C21   1.260       .  A
O12          V19   1.916   1_556  S
O12          C22   1.267       .  A
O13          V19   1.914       .  S
O13          C23   1.269       .  A
O14          V19   1.894   1_556  S
O14          C24   1.262       .  A
O15          V20   1.881   1_556  S
O15          C24   1.254       .  A
O16          V20   1.912       .  S
O16          C23   1.267       .  A
O17          V20   1.919   1_556  S
O17          C22   1.268       .  A
O18          V20   1.877       .  S
O18          C21   1.261       .  A
V19          V20   2.084       .  T
C21         C295   1.446       .  S
C22         C263   1.492       .  S
C23         C247   1.498       .  S
C24         C279   1.447       .  S
O25          V33   1.905   1_554  S
O25          C35   1.263       .  A
O26         V335   1.905   1_545  S
O26          C36   1.266       .  A
O27         V335   1.892   1_544  S
O27          C37   1.261       .  A
O28          V33   1.871       .  S
O28          C38   1.253       .  A
O29          V34   1.908   1_556  S
O29          C38   1.261       .  A
O30         V336   1.918       .  S
O30          C37   1.269       .  A
O31         V336   1.891   1_556  S
O31          C36   1.263       .  A
O32          V34   1.896       .  S
O32          C35   1.262       .  A
V33         O328   1.906       .  S
V33         O329   1.892   1_556  S
V33          V34   2.082   1_556  T
V34         O332   1.918       .  S
V34         O333   1.891   1_554  S
C35         C223   1.472       .  S
C36         C191   1.478       .  S
C37         C175   1.475       .  S
C38         C215   1.465       .  S
O39          V47   1.874   1_556  S
O39          C49   1.255       .  A
O40         V651   1.921   1_455  S
O40          C50   1.268       .  A
O41         V651   1.888   1_456  S
O41          C51   1.264       .  A
O42          V47   1.861       .  S
O42          C52   1.250       .  A
O43          V48   1.918   1_554  S
O43          C52   1.266       .  A
O44         V652   1.909   1_455  S
O44          C51   1.271       .  A
O45         V652   1.892   1_454  S
O45          C50   1.266       .  A
O46          V48   1.897       .  S
O46          C49   1.263       .  A
V47         O644   1.921       .  S
V47         O645   1.888   1_554  S
V47          V48   2.072   1_554  T
V48         O648   1.909       .  S
V48         O649   1.892   1_556  S
C49         C119   1.446       .  S
C50         C151   1.486       .  S
C51         C127   1.489       .  S
C52         C159   1.464       .  S
C53         C108   1.565       .  S
C53          C58   1.406       .  A
C53         C658   1.492   1_455  A
C54          C55   1.414       .  A
C54         C657   1.492       .  A
C55          C56   1.403       .  A
C55          H60   1.064       .  S
C56         C183   1.490       .  S
C56         C661   1.408       .  A
C57         C239   1.488       .  S
C57          C58   1.393       .  A
C57         C660   1.408   1_455  A
C58          H59   1.082       .  S
C61          C62   1.497       .  A
C61          C66   1.402       .  A
C62         C110   1.584       .  S
C62          C63   1.414       .  A
C63          C64   1.388       .  A
C63          H68   1.067       .  S
C64         C231   1.490       .  S
C64          C65   1.402       .  A
C65         C167   1.461       .  S
C65          C66   1.390       .  A
C66          H67   1.082       .  S
C69          C74   1.408       .  A
C69         C674   1.503       .  A
C70         C105   1.587       .  S
C70          C71   1.415       .  A
C70         C673   1.503   1_455  A
C71          C72   1.392       .  A
C71          H76   1.061       .  S
C72         C255   1.501       .  S
C72         C677   1.400   1_455  A
C73         C199   1.473       .  S
C73          C74   1.396       .  A
C73         C676   1.400       .  A
C74          H75   1.078       .  S
C77          C78   1.514       .  A
C77          C82   1.396       .  A
C78         C107   1.584       .  S
C78          C79   1.422       .  A
C79          C80   1.393       .  A
C79          H84   1.084       .  S
C80         C207   1.484       .  S
C80          C81   1.397       .  A
C81         C111   1.469       .  S
C81          C82   1.378       .  A
C82          H83   1.070       .  S
C85          C90   1.410       .  A
C85         C388   1.483   1_545  A
C86         C106   1.551       .  S
C86          C87   1.419       .  A
C86         C387   1.483       .  A
C87          C88   1.398       .  A
C87          H92   1.081       .  S
C88         C135   1.494       .  S
C88         C391   1.400       .  A
C89         C271   1.461       .  S
C89          C90   1.388       .  A
C89         C390   1.400   1_545  A
C90          H91   1.067       .  S
C93          C98   1.400       .  A
C93         C396   1.503   1_545  A
C94         C109   1.560       .  S
C94          C95   1.418       .  A
C94         C395   1.503       .  A
C95          C96   1.393       .  A
C95         H100   1.085       .  S
C96         C143   1.506       .  S
C96         C399   1.411       .  A
C97         C287   1.463       .  S
C97          C98   1.392       .  A
C97         C398   1.411   1_545  A
C98          H99   1.082       .  S
C101        H102   1.099       .  S
C101        C107   1.647       .  S
C101        C106   1.610       .  S
C101        C105   1.650       .  S
C103        H104   1.102       .  S
C103        C109   1.635       .  S
C103        C108   1.630       .  S
C103        C110   1.641       .  S
C105        C108   1.362       .  D
C106        C109   1.347       .  D
C107        C110   1.367       .  D
C111        C112   1.402       .  A
C111        C116   1.389       .  A
C112        C113   1.397       .  A
C112        H121   1.083       .  S
C113        C114   1.401       .  A
C113        H122   1.078       .  S
C114        C120   1.397       .  A
C114        C115   1.407       .  A
C115        C117   1.396       .  A
C115        C116   1.392       .  A
C116        H123   1.083       .  S
C117        C118   1.389       .  A
C117        H124   1.080       .  S
C118        C119   1.390       .  A
C118        H125   1.079       .  S
C119        C120   1.402       .  A
C120        H126   1.079       .  S
C127        C128   1.410       .  A
C127        C132   1.396       .  A
C128        C129   1.408       .  A
C128        H137   1.083       .  S
C129        C130   1.403       .  A
C129        H138   1.073       .  S
C130        C136   1.423       .  A
C130        C131   1.404       .  A
C131        C133   1.379       .  A
C131        C132   1.403       .  A
C132        H139   1.083       .  S
C133        C134   1.382       .  A
C133        H140   1.052       .  S
C134        C135   1.393       .  A
C134        H141   1.078       .  S
C135        C136   1.422       .  A
C136        H444   1.083       .  S
H142        C438   1.083   1_545  S
C143        C144   1.406       .  A
C143        C148   1.407       .  A
C144        C145   1.409       .  A
C144        H455   1.083       .  S
C145        C146   1.411       .  A
C145        H154   1.076       .  S
C146        C152   1.422       .  A
C146        C147   1.402       .  A
C147        C149   1.394       .  A
C147        C148   1.408       .  A
C148        H155   1.083       .  S
C149        C150   1.384       .  A
C149        H156   1.052       .  S
C150        C151   1.390       .  A
C150        H157   1.083       .  S
C151        C152   1.418       .  A
C152        H158   1.070       .  S
H153        C446   1.083       .  S
C159        C160   1.407       .  A
C159        C164   1.389       .  A
C160        C161   1.387       .  A
C160        H169   1.080       .  S
C161        C162   1.387       .  A
C161        H170   1.082       .  S
C162        C168   1.401       .  A
C162        C163   1.411       .  A
C163        C165   1.383       .  A
C163        C164   1.405       .  A
C164        H171   1.081       .  S
C165        C166   1.381       .  A
C165        H172   1.054       .  S
C166        C167   1.396       .  A
C166        H173   1.081       .  S
C167        C168   1.398       .  A
C168        H174   1.085       .  S
C175        C176   1.398       .  A
C175        C180   1.411       .  A
C176        C177   1.387       .  A
C176        H185   1.080       .  S
C177        C178   1.398       .  A
C177        H186   1.082       .  S
C178        C184   1.396       .  A
C178        C179   1.411       .  A
C179        C181   1.409       .  A
C179        C180   1.420       .  A
C180        H187   1.081       .  S
C181        C182   1.413       .  A
C181        H188   1.082       .  S
C182        C183   1.407       .  A
C182        H189   1.078       .  S
C183        C184   1.396       .  A
C184        H190   1.084       .  S
C191        C192   1.402       .  A
C191        C196   1.408       .  A
C192        C193   1.395       .  A
C192        H201   1.083       .  S
C193        C194   1.395       .  A
C193        H202   1.072       .  S
C194        C200   1.405       .  A
C194        C195   1.406       .  A
C195        C197   1.397       .  A
C195        C196   1.407       .  A
C196        H203   1.082       .  S
C197        C198   1.392       .  A
C197        H204   1.069       .  S
C198        C199   1.395       .  A
C198        H205   1.084       .  S
C199        C200   1.406       .  A
C200        H206   1.084       .  S
C207        C208   1.401       .  A
C207        C212   1.411       .  A
C208        C209   1.396       .  A
C208        H217   1.084       .  S
C209        C210   1.394       .  A
C209        H218   1.081       .  S
C210        C216   1.399       .  A
C210        C211   1.404       .  A
C211        C213   1.402       .  A
C211        C212   1.410       .  A
C212        H219   1.083       .  S
C213        C214   1.400       .  A
C213        H220   1.064       .  S
C214        C215   1.396       .  A
C214        H221   1.082       .  S
C215        C216   1.407       .  A
C216        H222   1.083       .  S
C223        C224   1.381       .  A
C223        C228   1.411       .  A
C224        C225   1.382       .  A
C224        H233   1.071       .  S
C225        C226   1.377       .  A
C225        H234   1.061       .  S
C226        C232   1.401       .  A
C226        C227   1.414       .  A
C227        C229   1.399       .  A
C227        C228   1.426       .  A
C228        H235   1.082       .  S
C229        C230   1.410       .  A
C229        H236   1.077       .  S
C230        C231   1.402       .  A
C230        H237   1.069       .  S
C231        C232   1.392       .  A
C232        H238   1.085       .  S
C239        C240   1.399       .  A
C239        C244   1.406       .  A
C240        C241   1.398       .  A
C240        H853   1.083       .  S
C241        C242   1.410       .  A
C241        H250   1.081       .  S
C242        C248   1.412       .  A
C242        C243   1.397       .  A
C243        C245   1.392       .  A
C243        C244   1.405       .  A
C244        H251   1.084       .  S
C245        C246   1.402       .  A
C245        H252   1.059       .  S
C246        C247   1.399       .  A
C246        H253   1.083       .  S
C247        C248   1.413       .  A
C248        H254   1.075       .  S
H249        C844   1.083       .  S
C255        C256   1.399       .  A
C255        C260   1.411       .  A
C256        C257   1.394       .  A
C256        H265   1.084       .  S
C257        C258   1.404       .  A
C257        H266   1.067       .  S
C258        C264   1.409       .  A
C258        C259   1.406       .  A
C259        C261   1.408       .  A
C259        C260   1.417       .  A
C260        H267   1.072   1_455  S
C261        C262   1.408       .  A
C261        H268   1.078       .  S
C262        C263   1.403       .  A
C262        H269   1.083       .  S
C263        C264   1.409       .  A
C264        H270   1.071       .  S
C271        C272   1.392       .  A
C271        C276   1.411       .  A
C272        C273   1.371       .  A
C272        H281   1.079       .  S
C273        C274   1.372       .  A
C273        H282   1.061       .  S
C274        C280   1.375       .  A
C274        C275   1.401       .  A
C275        C277   1.403       .  A
C275        C276   1.408       .  A
C276        H283   1.081   1_545  S
C277        C278   1.410       .  A
C277        H284   1.067   1_545  S
C278        C279   1.394       .  A
C278        H285   1.070   1_545  S
C279        C280   1.367       .  A
C280        H286   1.067       .  S
C287        C288   1.386       .  A
C287        C292   1.389       .  A
C288        C289   1.400       .  A
C288        H297   1.078       .  S
C289        C290   1.376       .  A
C289        H298   1.046       .  S
C290        C296   1.410       .  A
C290        C291   1.402       .  A
C291        C293   1.370       .  A
C291        C292   1.391       .  A
C292        H299   1.085       .  S
C293        C294   1.373       .  A
C293        H300   1.058       .  S
C294        C295   1.381       .  A
C294        H301   1.064       .  S
C295        C296   1.392       .  A
C296        H302   1.079       .  S
C303        H304   1.096       .  S
C303        C309   1.638       .  S
C303        C308   1.650       .  S
C303        C307   1.666       .  S
C305        H306   1.089       .  S
C305        C311   1.640       .  S
C305        C310   1.630       .  S
C305        C312   1.656       .  S
C307        C310   1.382       .  D
C307        C395   1.598       .  S
C308        C311   1.365       .  D
C308        C356   1.593       .  S
C309        C312   1.352       .  D
C309        C363   1.573       .  S
C310        C387   1.590       .  S
C311        C371   1.588       .  S
C312        C379   1.590       .  S
O313        V321   1.896       .  S
O313        C323   1.260       .  A
O314        V321   1.917   1_556  S
O314        C324   1.267       .  A
O315        V321   1.914       .  S
O315        C325   1.269       .  A
O316        V321   1.894   1_556  S
O316        C326   1.262       .  A
O317        V322   1.881   1_556  S
O317        C326   1.254       .  A
O318        V322   1.912       .  S
O318        C325   1.267       .  A
O319        V322   1.920   1_556  S
O319        C324   1.268       .  A
O320        V322   1.877       .  S
O320        C323   1.261       .  A
V321        V322   2.084       .  T
C323        C597   1.446       .  S
C324        C565   1.493       .  S
C325        C549   1.498       .  S
C326        C581   1.447       .  S
O327        V335   1.905   1_554  S
O327        C337   1.263       .  A
O328        C338   1.266       .  A
O329        C339   1.261       .  A
O330        V335   1.871       .  S
O330        C340   1.253       .  A
O331        V336   1.908   1_566  S
O331        C340   1.261       .  A
O332        C339   1.269       .  A
O333        C338   1.263       .  A
O334        V336   1.896   1_565  S
O334        C337   1.262       .  A
V335        V336   2.082   1_566  T
C337        C525   1.472       .  S
C338        C493   1.478       .  S
C339        C477   1.475       .  S
C340        C517   1.465       .  S
O341        V349   1.874   1_556  S
O341        C351   1.255       .  A
O342        V953   1.921   1_455  S
O342        C352   1.268       .  A
O343        V953   1.888   1_456  S
O343        C353   1.264       .  A
O344        V349   1.861       .  S
O344        C354   1.250       .  A
O345        V350   1.918   1_554  S
O345        C354   1.266       .  A
O346        V954   1.909   1_455  S
O346        C353   1.271       .  A
O347        V954   1.892   1_454  S
O347        C352   1.266       .  A
O348        V350   1.897       .  S
O348        C351   1.263       .  A
V349        O946   1.921       .  S
V349        O947   1.888   1_554  S
V349        V350   2.072   1_554  T
V350        O950   1.909       .  S
V350        O951   1.892   1_556  S
C351        C421   1.446       .  S
C352        C453   1.486       .  S
C353        C429   1.489       .  S
C354        C461   1.464       .  S
C355        C410   1.565       .  S
C355        C960   1.492   1_455  A
C355        C360   1.406       .  A
C356        C959   1.492       .  A
C356        C357   1.414       .  A
C357        C358   1.403       .  A
C357        H362   1.064       .  S
C358        C485   1.490       .  S
C358        C963   1.408       .  A
C359        C541   1.488       .  S
C359        C962   1.408   1_455  A
C359        C360   1.393       .  A
C360        H361   1.082       .  S
C363        C364   1.497       .  A
C363        C368   1.402       .  A
C364        C412   1.584       .  S
C364        C365   1.414       .  A
C365        C366   1.388       .  A
C365        H370   1.067       .  S
C366        C533   1.490       .  S
C366        C367   1.402       .  A
C367        C469   1.461       .  S
C367        C368   1.390       .  A
C368        H369   1.082       .  S
C371        C976   1.503       .  A
C371        C376   1.408       .  A
C372        C407   1.587       .  S
C372        C975   1.503   1_455  A
C372        C373   1.415       .  A
C373        C374   1.392       .  A
C373        H378   1.061       .  S
C374        C557   1.501       .  S
C374        C979   1.400   1_455  A
C375        C501   1.473       .  S
C375        C978   1.400       .  A
C375        C376   1.396       .  A
C376        H377   1.078       .  S
C379        C380   1.514       .  A
C379        C384   1.396       .  A
C380        C409   1.584       .  S
C380        C381   1.422       .  A
C381        C382   1.393       .  A
C381        H386   1.084       .  S
C382        C509   1.484       .  S
C382        C383   1.397       .  A
C383        C413   1.469       .  S
C383        C384   1.378       .  A
C384        H385   1.070       .  S
C387        C392   1.410       .  A
C388        C408   1.551       .  S
C388        C389   1.419       .  A
C389        C390   1.398       .  A
C389        H394   1.081       .  S
C390        C437   1.494       .  S
C391        C573   1.461       .  S
C391        C392   1.388       .  A
C392        H393   1.068       .  S
C395        C400   1.400       .  A
C396        C411   1.561       .  S
C396        C397   1.418       .  A
C397        C398   1.393       .  A
C397        H402   1.085       .  S
C398        C445   1.506       .  S
C399        C589   1.463       .  S
C399        C400   1.392       .  A
C400        H401   1.082       .  S
C403        H404   1.099       .  S
C403        C409   1.647       .  S
C403        C408   1.610       .  S
C403        C407   1.650       .  S
C405        H406   1.102       .  S
C405        C411   1.635       .  S
C405        C410   1.630       .  S
C405        C412   1.641       .  S
C407        C410   1.362       .  D
C408        C411   1.347       .  D
C409        C412   1.367       .  D
C413        C414   1.402       .  A
C413        C418   1.389       .  A
C414        C415   1.397       .  A
C414        H423   1.083       .  S
C415        C416   1.401       .  A
C415        H424   1.078       .  S
C416        C422   1.397       .  A
C416        C417   1.407       .  A
C417        C419   1.396       .  A
C417        C418   1.392       .  A
C418        H425   1.083       .  S
C419        C420   1.389       .  A
C419        H426   1.080       .  S
C420        C421   1.390       .  A
C420        H427   1.079       .  S
C421        C422   1.402       .  A
C422        H428   1.079       .  S
C429        C430   1.411       .  A
C429        C434   1.396       .  A
C430        C431   1.408       .  A
C430        H439   1.083   1_565  S
C431        C432   1.403       .  A
C431        H440   1.073   1_565  S
C432        C438   1.423       .  A
C432        C433   1.404       .  A
C433        C435   1.379       .  A
C433        C434   1.403       .  A
C434        H441   1.083       .  S
C435        C436   1.382       .  A
C435        H442   1.052       .  S
C436        C437   1.393       .  A
C436        H443   1.078       .  S
C437        C438   1.422       .  A
C445        C446   1.406       .  A
C445        C450   1.407       .  A
C446        C447   1.409       .  A
C447        C448   1.411       .  A
C447        H456   1.076       .  S
C448        C454   1.422       .  A
C448        C449   1.402       .  A
C449        C451   1.394       .  A
C449        C450   1.408       .  A
C450        H457   1.083       .  S
C451        C452   1.384       .  A
C451        H458   1.051       .  S
C452        C453   1.390       .  A
C452        H459   1.083       .  S
C453        C454   1.418       .  A
C454        H460   1.070       .  S
C461        C462   1.408       .  A
C461        C466   1.389       .  A
C462        C463   1.387       .  A
C462        H471   1.080       .  S
C463        C464   1.387       .  A
C463        H472   1.082       .  S
C464        C470   1.401       .  A
C464        C465   1.411       .  A
C465        C467   1.383       .  A
C465        C466   1.405       .  A
C466        H473   1.081       .  S
C467        C468   1.381       .  A
C467        H474   1.054       .  S
C468        C469   1.396       .  A
C468        H475   1.081       .  S
C469        C470   1.398       .  A
C470        H476   1.085       .  S
C477        C478   1.398       .  A
C477        C482   1.411       .  A
C478        C479   1.387       .  A
C478        H487   1.080       .  S
C479        C480   1.398       .  A
C479        H488   1.082       .  S
C480        C486   1.396       .  A
C480        C481   1.411       .  A
C481        C483   1.409       .  A
C481        C482   1.420       .  A
C482        H489   1.081       .  S
C483        C484   1.413       .  A
C483        H490   1.082       .  S
C484        C485   1.407       .  A
C484        H491   1.078       .  S
C485        C486   1.396       .  A
C486        H492   1.084       .  S
C493        C494   1.402       .  A
C493        C498   1.408       .  A
C494        C495   1.395       .  A
C494        H503   1.083       .  S
C495        C496   1.395       .  A
C495        H504   1.072       .  S
C496        C502   1.405       .  A
C496        C497   1.406       .  A
C497        C499   1.397       .  A
C497        C498   1.408       .  A
C498        H505   1.082       .  S
C499        C500   1.392       .  A
C499        H506   1.069       .  S
C500        C501   1.395       .  A
C500        H507   1.084       .  S
C501        C502   1.406       .  A
C502        H508   1.084       .  S
C509        C510   1.401       .  A
C509        C514   1.410       .  A
C510        C511   1.396       .  A
C510        H519   1.084       .  S
C511        C512   1.394       .  A
C511        H520   1.081       .  S
C512        C518   1.399       .  A
C512        C513   1.404       .  A
C513        C515   1.402       .  A
C513        C514   1.410       .  A
C514        H521   1.083       .  S
C515        C516   1.400       .  A
C515        H522   1.064       .  S
C516        C517   1.396       .  A
C516        H523   1.082       .  S
C517        C518   1.407       .  A
C518        H524   1.083       .  S
C525        C526   1.381       .  A
C525        C530   1.411       .  A
C526        C527   1.382       .  A
C526        H535   1.071       .  S
C527        C528   1.377       .  A
C527        H536   1.061       .  S
C528        C534   1.401       .  A
C528        C529   1.414       .  A
C529        C531   1.399       .  A
C529        C530   1.426       .  A
C530        H537   1.082       .  S
C531        C532   1.410       .  A
C531        H538   1.077       .  S
C532        C533   1.402       .  A
C532        H539   1.069       .  S
C533        C534   1.392       .  A
C534        H540   1.085       .  S
C541        C542   1.399       .  A
C541        C546   1.406       .  A
C542        C543   1.398       .  A
C542       H1155   1.083       .  S
C543        C544   1.410       .  A
C543        H552   1.081       .  S
C544        C550   1.412       .  A
C544        C545   1.397       .  A
C545        C547   1.392       .  A
C545        C546   1.405       .  A
C546        H553   1.084       .  S
C547        C548   1.402       .  A
C547        H554   1.059       .  S
C548        C549   1.399       .  A
C548        H555   1.083       .  S
C549        C550   1.413       .  A
C550        H556   1.075       .  S
H551       C1146   1.083       .  S
C557        C558   1.398       .  A
C557        C562   1.411       .  A
C558        C559   1.394       .  A
C558        H567   1.084       .  S
C559        C560   1.404       .  A
C559        H568   1.067       .  S
C560        C566   1.409       .  A
C560        C561   1.406       .  A
C561        C563   1.408       .  A
C561        C562   1.417       .  A
C562        H569   1.072   1_455  S
C563        C564   1.408       .  A
C563        H570   1.078       .  S
C564        C565   1.403       .  A
C564        H571   1.083       .  S
C565        C566   1.409       .  A
C566        H572   1.071       .  S
C573        C574   1.392       .  A
C573        C578   1.411       .  A
C574        C575   1.371       .  A
C574        H583   1.079       .  S
C575        C576   1.372       .  A
C575        H584   1.061       .  S
C576        C582   1.375       .  A
C576        C577   1.401       .  A
C577        C579   1.403       .  A
C577        C578   1.408       .  A
C578        H585   1.081       .  S
C579        C580   1.410       .  A
C579        H586   1.067       .  S
C580        C581   1.394       .  A
C580        H587   1.070       .  S
C581        C582   1.367       .  A
C582        H588   1.067       .  S
C589        C590   1.386       .  A
C589        C594   1.389       .  A
C590        C591   1.400       .  A
C590        H599   1.078       .  S
C591        C592   1.376       .  A
C591        H600   1.046       .  S
C592        C598   1.410       .  A
C592        C593   1.402       .  A
C593        C595   1.370       .  A
C593        C594   1.391       .  A
C594        H601   1.085       .  S
C595        C596   1.373       .  A
C595        H602   1.058       .  S
C596        C597   1.381       .  A
C596        H603   1.064       .  S
C597        C598   1.392       .  A
C598        H604   1.079       .  S
C605        H606   1.096       .  S
C605        C611   1.638       .  S
C605        C610   1.650       .  S
C605        C609   1.666       .  S
C607        H608   1.089       .  S
C607        C613   1.640       .  S
C607        C612   1.630       .  S
C607        C614   1.656       .  S
C609        C612   1.382       .  D
C609        C697   1.598       .  S
C610        C613   1.365       .  D
C610        C658   1.593       .  S
C611        C614   1.352       .  D
C611        C665   1.573       .  S
C612        C689   1.590       .  S
C613        C673   1.588       .  S
C614        C681   1.590       .  S
O615        V623   1.896       .  S
O615        C625   1.260       .  A
O616        V623   1.916   1_556  S
O616        C626   1.267       .  A
O617        V623   1.914       .  S
O617        C627   1.269       .  A
O618        V623   1.894   1_556  S
O618        C628   1.262       .  A
O619        V624   1.881   1_556  S
O619        C628   1.254       .  A
O620        V624   1.912       .  S
O620        C627   1.267       .  A
O621        V624   1.919   1_556  S
O621        C626   1.268       .  A
O622        V624   1.877       .  S
O622        C625   1.261       .  A
V623        V624   2.084       .  T
C625        C899   1.446       .  S
C626        C867   1.492       .  S
C627        C851   1.498       .  S
C628        C883   1.447       .  S
O629        V637   1.905   1_554  S
O629        C639   1.263       .  A
O630        V939   1.905   1_545  S
O630        C640   1.266       .  A
O631        V939   1.892   1_544  S
O631        C641   1.261       .  A
O632        V637   1.871       .  S
O632        C642   1.253       .  A
O633        V638   1.908   1_556  S
O633        C642   1.261       .  A
O634        V940   1.918       .  S
O634        C641   1.269       .  A
O635        V940   1.891   1_556  S
O635        C640   1.263       .  A
O636        V638   1.896       .  S
O636        C639   1.262       .  A
V637        O932   1.906       .  S
V637        O933   1.892   1_556  S
V637        V638   2.082   1_556  T
V638        O936   1.918       .  S
V638        O937   1.891   1_554  S
C639        C827   1.472       .  S
C640        C795   1.478       .  S
C641        C779   1.475       .  S
C642        C819   1.465       .  S
O643        V651   1.874   1_556  S
O643        C653   1.255       .  A
O644        C654   1.268       .  A
O645        C655   1.264       .  A
O646        V651   1.861       .  S
O646        C656   1.250       .  A
O647        V652   1.918   1_554  S
O647        C656   1.266       .  A
O648        C655   1.271       .  A
O649        C654   1.266       .  A
O650        V652   1.897       .  S
O650        C653   1.263       .  A
V651        V652   2.072   1_554  T
C653        C723   1.446       .  S
C654        C755   1.486       .  S
C655        C731   1.489       .  S
C656        C763   1.464       .  S
C657        C712   1.565       .  S
C657        C662   1.406       .  A
C658        C659   1.414       .  A
C659        C660   1.403       .  A
C659        H664   1.064       .  S
C660        C787   1.490       .  S
C661        C843   1.488       .  S
C661        C662   1.393       .  A
C662        H663   1.082       .  S
C665        C666   1.497       .  A
C665        C670   1.402       .  A
C666        C714   1.584       .  S
C666        C667   1.414       .  A
C667        C668   1.388       .  A
C667        H672   1.067       .  S
C668        C835   1.490       .  S
C668        C669   1.402       .  A
C669        C771   1.461       .  S
C669        C670   1.390       .  A
C670        H671   1.082       .  S
C673        C678   1.408       .  A
C674        C709   1.587       .  S
C674        C675   1.415       .  A
C675        C676   1.392       .  A
C675        H680   1.061       .  S
C676        C859   1.501       .  S
C677        C803   1.473       .  S
C677        C678   1.396       .  A
C678        H679   1.078       .  S
C681        C682   1.514       .  A
C681        C686   1.396       .  A
C682        C711   1.584       .  S
C682        C683   1.422       .  A
C683        C684   1.393       .  A
C683        H688   1.084       .  S
C684        C811   1.484       .  S
C684        C685   1.397       .  A
C685        C715   1.469       .  S
C685        C686   1.378       .  A
C686        H687   1.070       .  S
C689        C992   1.483   1_545  A
C689        C694   1.410       .  A
C690        C710   1.551       .  S
C690        C991   1.483       .  A
C690        C691   1.419       .  A
C691        C692   1.398       .  A
C691        H696   1.081       .  S
C692        C739   1.494       .  S
C692        C995   1.400       .  A
C693        C875   1.461       .  S
C693        C994   1.400   1_545  A
C693        C694   1.388       .  A
C694        H695   1.067       .  S
C697       C1000   1.503   1_545  A
C697        C702   1.400       .  A
C698        C713   1.560       .  S
C698        C999   1.503       .  A
C698        C699   1.418       .  A
C699        C700   1.393       .  A
C699        H704   1.085       .  S
C700        C747   1.506       .  S
C700       C1003   1.411       .  A
C701        C891   1.463       .  S
C701       C1002   1.411   1_545  A
C701        C702   1.392       .  A
C702        H703   1.082       .  S
C705        H706   1.099       .  S
C705        C711   1.647       .  S
C705        C710   1.610       .  S
C705        C709   1.650       .  S
C707        H708   1.102       .  S
C707        C713   1.635       .  S
C707        C712   1.630       .  S
C707        C714   1.641       .  S
C709        C712   1.362       .  D
C710        C713   1.347       .  D
C711        C714   1.367       .  D
C715        C716   1.402       .  A
C715        C720   1.389       .  A
C716        C717   1.397       .  A
C716        H725   1.083       .  S
C717        C718   1.401       .  A
C717        H726   1.078       .  S
C718        C724   1.397       .  A
C718        C719   1.407       .  A
C719        C721   1.396       .  A
C719        C720   1.392       .  A
C720        H727   1.083       .  S
C721        C722   1.389       .  A
C721        H728   1.080       .  S
C722        C723   1.390       .  A
C722        H729   1.079       .  S
C723        C724   1.402       .  A
C724        H730   1.079       .  S
C731        C732   1.410       .  A
C731        C736   1.396       .  A
C732        C733   1.408       .  A
C732        H741   1.083       .  S
C733        C734   1.403       .  A
C733        H742   1.073       .  S
C734        C740   1.423       .  A
C734        C735   1.404       .  A
C735        C737   1.379       .  A
C735        C736   1.403       .  A
C736        H743   1.083       .  S
C737        C738   1.382       .  A
C737        H744   1.052       .  S
C738        C739   1.393       .  A
C738        H745   1.078       .  S
C739        C740   1.422       .  A
C740       H1048   1.083       .  S
H746       C1042   1.083   1_545  S
C747        C748   1.406       .  A
C747        C752   1.407       .  A
C748        C749   1.409       .  A
C748       H1059   1.083       .  S
C749        C750   1.411       .  A
C749        H758   1.076       .  S
C750        C756   1.422       .  A
C750        C751   1.402       .  A
C751        C753   1.394       .  A
C751        C752   1.408       .  A
C752        H759   1.083       .  S
C753        C754   1.384       .  A
C753        H760   1.052       .  S
C754        C755   1.390       .  A
C754        H761   1.083       .  S
C755        C756   1.418       .  A
C756        H762   1.070       .  S
H757       C1050   1.083       .  S
C763        C764   1.407       .  A
C763        C768   1.389       .  A
C764        C765   1.387       .  A
C764        H773   1.080       .  S
C765        C766   1.387       .  A
C765        H774   1.082       .  S
C766        C772   1.401       .  A
C766        C767   1.411       .  A
C767        C769   1.383       .  A
C767        C768   1.405       .  A
C768        H775   1.081       .  S
C769        C770   1.381       .  A
C769        H776   1.054       .  S
C770        C771   1.396       .  A
C770        H777   1.081       .  S
C771        C772   1.398       .  A
C772        H778   1.085       .  S
C779        C780   1.398       .  A
C779        C784   1.411       .  A
C780        C781   1.387       .  A
C780        H789   1.080       .  S
C781        C782   1.398       .  A
C781        H790   1.082       .  S
C782        C788   1.396       .  A
C782        C783   1.411       .  A
C783        C785   1.409       .  A
C783        C784   1.420       .  A
C784        H791   1.081       .  S
C785        C786   1.413       .  A
C785        H792   1.082   1_655  S
C786        C787   1.407       .  A
C786        H793   1.078   1_655  S
C787        C788   1.396       .  A
C788        H794   1.084       .  S
C795        C796   1.402       .  A
C795        C800   1.408       .  A
C796        C797   1.395       .  A
C796        H805   1.083       .  S
C797        C798   1.395       .  A
C797        H806   1.072       .  S
C798        C804   1.405       .  A
C798        C799   1.406       .  A
C799        C801   1.397       .  A
C799        C800   1.407       .  A
C800        H807   1.082       .  S
C801        C802   1.392       .  A
C801        H808   1.069       .  S
C802        C803   1.395       .  A
C802        H809   1.084       .  S
C803        C804   1.406       .  A
C804        H810   1.084       .  S
C811        C812   1.401       .  A
C811        C816   1.411       .  A
C812        C813   1.396       .  A
C812        H821   1.084       .  S
C813        C814   1.394       .  A
C813        H822   1.081       .  S
C814        C820   1.399       .  A
C814        C815   1.404       .  A
C815        C817   1.402       .  A
C815        C816   1.410       .  A
C816        H823   1.083       .  S
C817        C818   1.400       .  A
C817        H824   1.064       .  S
C818        C819   1.396       .  A
C818        H825   1.082       .  S
C819        C820   1.407       .  A
C820        H826   1.083       .  S
C827        C828   1.381       .  A
C827        C832   1.411       .  A
C828        C829   1.382       .  A
C828        H837   1.071       .  S
C829        C830   1.377       .  A
C829        H838   1.061       .  S
C830        C836   1.401       .  A
C830        C831   1.414       .  A
C831        C833   1.399       .  A
C831        C832   1.426       .  A
C832        H839   1.082       .  S
C833        C834   1.410       .  A
C833        H840   1.077       .  S
C834        C835   1.402       .  A
C834        H841   1.069       .  S
C835        C836   1.392       .  A
C836        H842   1.085       .  S
C843        C844   1.399       .  A
C843        C848   1.406       .  A
C844        C845   1.398       .  A
C845        C846   1.410       .  A
C845        H854   1.081       .  S
C846        C852   1.412       .  A
C846        C847   1.397       .  A
C847        C849   1.392       .  A
C847        C848   1.405       .  A
C848        H855   1.084       .  S
C849        C850   1.402       .  A
C849        H856   1.059       .  S
C850        C851   1.399       .  A
C850        H857   1.083       .  S
C851        C852   1.413       .  A
C852        H858   1.075       .  S
C859        C860   1.399       .  A
C859        C864   1.411       .  A
C860        C861   1.394       .  A
C860        H869   1.084       .  S
C861        C862   1.404       .  A
C861        H870   1.067       .  S
C862        C868   1.409       .  A
C862        C863   1.406       .  A
C863        C865   1.408       .  A
C863        C864   1.417       .  A
C864        H871   1.072       .  S
C865        C866   1.408       .  A
C865        H872   1.078       .  S
C866        C867   1.403       .  A
C866        H873   1.083       .  S
C867        C868   1.409       .  A
C868        H874   1.071       .  S
C875        C876   1.392       .  A
C875        C880   1.411       .  A
C876        C877   1.371       .  A
C876        H885   1.079       .  S
C877        C878   1.372       .  A
C877        H886   1.061       .  S
C878        C884   1.375       .  A
C878        C879   1.401       .  A
C879        C881   1.403       .  A
C879        C880   1.408       .  A
C880        H887   1.081   1_545  S
C881        C882   1.410       .  A
C881        H888   1.067   1_545  S
C882        C883   1.394       .  A
C882        H889   1.070   1_545  S
C883        C884   1.367       .  A
C884        H890   1.067       .  S
C891        C892   1.386       .  A
C891        C896   1.389       .  A
C892        C893   1.400       .  A
C892        H901   1.078       .  S
C893        C894   1.376       .  A
C893        H902   1.046       .  S
C894        C900   1.410       .  A
C894        C895   1.402       .  A
C895        C897   1.370       .  A
C895        C896   1.391       .  A
C896        H903   1.085       .  S
C897        C898   1.373       .  A
C897        H904   1.058       .  S
C898        C899   1.381       .  A
C898        H905   1.064       .  S
C899        C900   1.392       .  A
C900        H906   1.079       .  S
C907        H908   1.096       .  S
C907        C913   1.638       .  S
C907        C912   1.650       .  S
C907        C911   1.666       .  S
C909        H910   1.089       .  S
C909        C915   1.640       .  S
C909        C914   1.630       .  S
C909        C916   1.656       .  S
C911        C914   1.382       .  D
C911        C999   1.598       .  S
C912        C915   1.365       .  D
C912        C960   1.593       .  S
C913        C916   1.352       .  D
C913        C967   1.573       .  S
C914        C991   1.590       .  S
C915        C975   1.588       .  S
C916        C983   1.590       .  S
O917        V925   1.896       .  S
O917        C927   1.260       .  A
O918        V925   1.917   1_556  S
O918        C928   1.267       .  A
O919        V925   1.914       .  S
O919        C929   1.269       .  A
O920        V925   1.894   1_556  S
O920        C930   1.262       .  A
O921        V926   1.881   1_556  S
O921        C930   1.254       .  A
O922        V926   1.912       .  S
O922        C929   1.267       .  A
O923        V926   1.920   1_556  S
O923        C928   1.268       .  A
O924        V926   1.877       .  S
O924        C927   1.261       .  A
V925        V926   2.084       .  T
C927       C1201   1.446       .  S
C928       C1169   1.493       .  S
C929       C1153   1.498       .  S
C930       C1185   1.447       .  S
O931        V939   1.905   1_554  S
O931        C941   1.263       .  A
O932        C942   1.266       .  A
O933        C943   1.261       .  A
O934        V939   1.871       .  S
O934        C944   1.253       .  A
O935        V940   1.908   1_566  S
O935        C944   1.261       .  A
O936        C943   1.269       .  A
O937        C942   1.263       .  A
O938        V940   1.896   1_565  S
O938        C941   1.262       .  A
V939        V940   2.082   1_566  T
C941       C1129   1.472       .  S
C942       C1097   1.478       .  S
C943       C1081   1.475       .  S
C944       C1121   1.465       .  S
O945        V953   1.874   1_556  S
O945        C955   1.255       .  A
O946        C956   1.268       .  A
O947        C957   1.264       .  A
O948        V953   1.861       .  S
O948        C958   1.250       .  A
O949        V954   1.918   1_554  S
O949        C958   1.266       .  A
O950        C957   1.271       .  A
O951        C956   1.266       .  A
O952        V954   1.897       .  S
O952        C955   1.263       .  A
V953        V954   2.072   1_554  T
C955       C1025   1.446       .  S
C956       C1057   1.486       .  S
C957       C1033   1.489       .  S
C958       C1065   1.464       .  S
C959       C1014   1.565       .  S
C959        C964   1.406       .  A
C960        C961   1.414       .  A
C961        C962   1.403       .  A
C961        H966   1.064       .  S
C962       C1089   1.490       .  S
C963       C1145   1.488       .  S
C963        C964   1.393       .  A
C964        H965   1.082       .  S
C967        C968   1.497       .  A
C967        C972   1.402       .  A
C968       C1016   1.584       .  S
C968        C969   1.414       .  A
C969        C970   1.388       .  A
C969        H974   1.067       .  S
C970       C1137   1.490       .  S
C970        C971   1.402       .  A
C971       C1073   1.461       .  S
C971        C972   1.390       .  A
C972        H973   1.082       .  S
C975        C980   1.408       .  A
C976       C1011   1.587       .  S
C976        C977   1.415       .  A
C977        C978   1.392       .  A
C977        H982   1.061       .  S
C978       C1161   1.501       .  S
C979       C1105   1.473       .  S
C979        C980   1.396       .  A
C980        H981   1.078       .  S
C983        C984   1.514       .  A
C983        C988   1.396       .  A
C984       C1013   1.584       .  S
C984        C985   1.422       .  A
C985        C986   1.393       .  A
C985        H990   1.084       .  S
C986       C1113   1.484       .  S
C986        C987   1.397       .  A
C987       C1017   1.469       .  S
C987        C988   1.378       .  A
C988        H989   1.070       .  S
C991        C996   1.410       .  A
C992       C1012   1.551       .  S
C992        C993   1.419       .  A
C993        C994   1.398       .  A
C993        H998   1.081       .  S
C994       C1041   1.494       .  S
C995       C1177   1.461       .  S
C995        C996   1.388       .  A
C996        H997   1.068       .  S
C999       C1004   1.400       .  A
C1000      C1015   1.561       .  S
C1000      C1001   1.418       .  A
C1001      C1002   1.393       .  A
C1001      H1006   1.085       .  S
C1002      C1049   1.506       .  S
C1003      C1193   1.463       .  S
C1003      C1004   1.392       .  A
C1004      H1005   1.082       .  S
C1007      H1008   1.099       .  S
C1007      C1013   1.647       .  S
C1007      C1012   1.610       .  S
C1007      C1011   1.650       .  S
C1009      H1010   1.102       .  S
C1009      C1015   1.635       .  S
C1009      C1014   1.630       .  S
C1009      C1016   1.641       .  S
C1011      C1014   1.362       .  D
C1012      C1015   1.347       .  D
C1013      C1016   1.367       .  D
C1017      C1018   1.402       .  A
C1017      C1022   1.389       .  A
C1018      C1019   1.397       .  A
C1018      H1027   1.083       .  S
C1019      C1020   1.401       .  A
C1019      H1028   1.078       .  S
C1020      C1026   1.397       .  A
C1020      C1021   1.407       .  A
C1021      C1023   1.396       .  A
C1021      C1022   1.392       .  A
C1022      H1029   1.083       .  S
C1023      C1024   1.389       .  A
C1023      H1030   1.080       .  S
C1024      C1025   1.390       .  A
C1024      H1031   1.079       .  S
C1025      C1026   1.402       .  A
C1026      H1032   1.079       .  S
C1033      C1034   1.411       .  A
C1033      C1038   1.396       .  A
C1034      C1035   1.408       .  A
C1034      H1043   1.083   1_565  S
C1035      C1036   1.403       .  A
C1035      H1044   1.073   1_565  S
C1036      C1042   1.423       .  A
C1036      C1037   1.404       .  A
C1037      C1039   1.379       .  A
C1037      C1038   1.403       .  A
C1038      H1045   1.083       .  S
C1039      C1040   1.382       .  A
C1039      H1046   1.052       .  S
C1040      C1041   1.393       .  A
C1040      H1047   1.078       .  S
C1041      C1042   1.422       .  A
C1049      C1050   1.406       .  A
C1049      C1054   1.407       .  A
C1050      C1051   1.409       .  A
C1051      C1052   1.411       .  A
C1051      H1060   1.076       .  S
C1052      C1058   1.422       .  A
C1052      C1053   1.402       .  A
C1053      C1055   1.394       .  A
C1053      C1054   1.408       .  A
C1054      H1061   1.083       .  S
C1055      C1056   1.384       .  A
C1055      H1062   1.051       .  S
C1056      C1057   1.390       .  A
C1056      H1063   1.083       .  S
C1057      C1058   1.418       .  A
C1058      H1064   1.070       .  S
C1065      C1066   1.408       .  A
C1065      C1070   1.389       .  A
C1066      C1067   1.387       .  A
C1066      H1075   1.080       .  S
C1067      C1068   1.387       .  A
C1067      H1076   1.082       .  S
C1068      C1074   1.401       .  A
C1068      C1069   1.411       .  A
C1069      C1071   1.383       .  A
C1069      C1070   1.405       .  A
C1070      H1077   1.081       .  S
C1071      C1072   1.381       .  A
C1071      H1078   1.054       .  S
C1072      C1073   1.396       .  A
C1072      H1079   1.081       .  S
C1073      C1074   1.398       .  A
C1074      H1080   1.085       .  S
C1081      C1082   1.398       .  A
C1081      C1086   1.411       .  A
C1082      C1083   1.387       .  A
C1082      H1091   1.080       .  S
C1083      C1084   1.398       .  A
C1083      H1092   1.082       .  S
C1084      C1090   1.396       .  A
C1084      C1085   1.411       .  A
C1085      C1087   1.409       .  A
C1085      C1086   1.420       .  A
C1086      H1093   1.081       .  S
C1087      C1088   1.413       .  A
C1087      H1094   1.082   1_655  S
C1088      C1089   1.407       .  A
C1088      H1095   1.078   1_655  S
C1089      C1090   1.396       .  A
C1090      H1096   1.084       .  S
C1097      C1098   1.402       .  A
C1097      C1102   1.408       .  A
C1098      C1099   1.395       .  A
C1098      H1107   1.083       .  S
C1099      C1100   1.395       .  A
C1099      H1108   1.072       .  S
C1100      C1106   1.405       .  A
C1100      C1101   1.406       .  A
C1101      C1103   1.397       .  A
C1101      C1102   1.408       .  A
C1102      H1109   1.082       .  S
C1103      C1104   1.392       .  A
C1103      H1110   1.069       .  S
C1104      C1105   1.395       .  A
C1104      H1111   1.084       .  S
C1105      C1106   1.406       .  A
C1106      H1112   1.084       .  S
C1113      C1114   1.401       .  A
C1113      C1118   1.410       .  A
C1114      C1115   1.396       .  A
C1114      H1123   1.084       .  S
C1115      C1116   1.394       .  A
C1115      H1124   1.081       .  S
C1116      C1122   1.399       .  A
C1116      C1117   1.404       .  A
C1117      C1119   1.402       .  A
C1117      C1118   1.410       .  A
C1118      H1125   1.083       .  S
C1119      C1120   1.400       .  A
C1119      H1126   1.064       .  S
C1120      C1121   1.396       .  A
C1120      H1127   1.082       .  S
C1121      C1122   1.407       .  A
C1122      H1128   1.083       .  S
C1129      C1130   1.381       .  A
C1129      C1134   1.411       .  A
C1130      C1131   1.382       .  A
C1130      H1139   1.071       .  S
C1131      C1132   1.377       .  A
C1131      H1140   1.061       .  S
C1132      C1138   1.401       .  A
C1132      C1133   1.414       .  A
C1133      C1135   1.399       .  A
C1133      C1134   1.426       .  A
C1134      H1141   1.082       .  S
C1135      C1136   1.410       .  A
C1135      H1142   1.077       .  S
C1136      C1137   1.402       .  A
C1136      H1143   1.069       .  S
C1137      C1138   1.392       .  A
C1138      H1144   1.085       .  S
C1145      C1146   1.399       .  A
C1145      C1150   1.406       .  A
C1146      C1147   1.398       .  A
C1147      C1148   1.410       .  A
C1147      H1156   1.081       .  S
C1148      C1154   1.412       .  A
C1148      C1149   1.397       .  A
C1149      C1151   1.392       .  A
C1149      C1150   1.405       .  A
C1150      H1157   1.084       .  S
C1151      C1152   1.402       .  A
C1151      H1158   1.059       .  S
C1152      C1153   1.399       .  A
C1152      H1159   1.083       .  S
C1153      C1154   1.413       .  A
C1154      H1160   1.075       .  S
C1161      C1162   1.398       .  A
C1161      C1166   1.411       .  A
C1162      C1163   1.394       .  A
C1162      H1171   1.084       .  S
C1163      C1164   1.404       .  A
C1163      H1172   1.067       .  S
C1164      C1170   1.409       .  A
C1164      C1165   1.406       .  A
C1165      C1167   1.408       .  A
C1165      C1166   1.417       .  A
C1166      H1173   1.072       .  S
C1167      C1168   1.408       .  A
C1167      H1174   1.078       .  S
C1168      C1169   1.403       .  A
C1168      H1175   1.083       .  S
C1169      C1170   1.409       .  A
C1170      H1176   1.071       .  S
C1177      C1178   1.392       .  A
C1177      C1182   1.411       .  A
C1178      C1179   1.371       .  A
C1178      H1187   1.079       .  S
C1179      C1180   1.372       .  A
C1179      H1188   1.061       .  S
C1180      C1186   1.375       .  A
C1180      C1181   1.401       .  A
C1181      C1183   1.403       .  A
C1181      C1182   1.408       .  A
C1182      H1189   1.081       .  S
C1183      C1184   1.410       .  A
C1183      H1190   1.067       .  S
C1184      C1185   1.394       .  A
C1184      H1191   1.070       .  S
C1185      C1186   1.367       .  A
C1186      H1192   1.067       .  S
C1193      C1194   1.386       .  A
C1193      C1198   1.389       .  A
C1194      C1195   1.400       .  A
C1194      H1203   1.078       .  S
C1195      C1196   1.376       .  A
C1195      H1204   1.046       .  S
C1196      C1202   1.410       .  A
C1196      C1197   1.402       .  A
C1197      C1199   1.370       .  A
C1197      C1198   1.391       .  A
C1198      H1205   1.085       .  S
C1199      C1200   1.373       .  A
C1199      H1206   1.058       .  S
C1200      C1201   1.381       .  A
C1200      H1207   1.064       .  S
C1201      C1202   1.392       .  A
C1202      H1208   1.079       .  S
