geometry optimzed in LAMMPS
_audit_creation_date              2020-11-30 
_audit_creation_method            'lammps2cif' 
_symmetry_space_group_name_H-M    'P1' 
_symmetry_Int_Tables_number       1 
_symmetry_cell_setting            triclinic 
loop_ 
_symmetry_equiv_pos_as_xyz 
  x,y,z 
_cell_length_a                    26.94605752 
_cell_length_b                    26.944257422043876 
_cell_length_c                    49.518086751081526 
_cell_angle_alpha                 89.91009307065971 
_cell_angle_beta                  90.1327575559029 
_cell_angle_gamma                 89.97720694216865 
loop_ 
_atom_site_label 
_atom_site_type_symbol 
_atom_site_fract_x 
_atom_site_fract_y 
_atom_site_fract_z 
_atom_site_charge 
O1          O  0.45575774  0.08643228  0.16263859    -0.72600
O2          O  0.45817167  0.44171237  0.16067341    -0.73600
O3          O  0.45889195  0.51444684  0.20187201    -0.62200
O4          O  0.46804574  0.51678445  0.12052946    -0.70600
O5          O  0.05136571  0.51633473  0.12197617    -0.70200
O6          O  0.04279455  0.01243589  0.20314692    -0.61400
O7          O  0.04708605  0.44022464  0.16151995    -0.73900
O8          O  0.04707996  0.08927823  0.16363550    -0.72700
Cu9        Cu  0.46015588  0.51595028  0.16111627     1.04600
Cu10       Cu  0.05048374  0.01493644  0.16273437     1.04300
C11         C  0.00585639  0.11257984  0.16239072     0.93600
C12         C  0.00587409  0.41698488  0.16019749     0.92700
C13         C  0.00019937  0.01088391  0.21439654     0.84900
C14         C  0.51083586  0.51565076  0.10934494     0.91100
O15         O  0.45234158  0.18928132  0.16582265    -0.72600
O16         O  0.45370031  0.33965669  0.16394069    -0.73600
O17         O  0.44308453  0.26310490  0.12504573    -0.62200
O18         O  0.45950481  0.26632468  0.20507642    -0.70600
O19         O  0.04552309  0.26659694  0.20255875    -0.70200
O20         O  0.04957850  0.26347015  0.12180613    -0.61400
O21         O  0.04712181  0.33929692  0.16126214    -0.73900
O22         O  0.04706005  0.19044088  0.16305598    -0.72700
Cu23       Cu  0.44926388  0.26463395  0.16515772     1.04600
Cu24       Cu  0.05014098  0.26495646  0.16221654     1.04300
C25         C  0.49376631  0.16619712  0.16386694     0.93600
C26         C  0.49547082  0.36195275  0.16167502     0.92700
C27         C  0.48107072  0.26253483  0.10980757     0.84900
C28         C  0.50251566  0.26621763  0.21581731     0.91100
O29         O  0.22275972  0.06619074  0.15907516    -0.72600
O30         O  0.22360716  0.41788342  0.15948733    -0.73600
O31         O  0.21351909  0.49293671  0.19966341    -0.62200
O32         O  0.23623502  0.99118533  0.11893665    -0.70600
O33         O  0.31738124  0.99143031  0.12676319    -0.70200
O34         O  0.29375551  0.99205335  0.20594398    -0.61400
O35         O  0.30526386  0.41711720  0.16574601    -0.73900
O36         O  0.30422579  0.06647085  0.16607982    -0.72700
Cu37       Cu  0.22156943  0.49182028  0.15884647     1.04600
Cu38       Cu  0.30734572  0.99163530  0.16648648     1.04300
C39         C  0.26323772  0.08973118  0.16265841     0.93600
C40         C  0.26410041  0.39408460  0.16252627     0.92700
C41         C  0.25001485  0.99353488  0.21556011     0.84900
C42         C  0.28112228  0.99086798  0.11027346     0.91100
O43         O  0.30289187  0.24279061  0.20308604    -0.72600
O44         O  0.30065974  0.24080853  0.12124730    -0.73600
O45         O  0.30382650  0.31579202  0.16193322    -0.62200
O46         O  0.30335003  0.16772577  0.16276485    -0.70600
O47         O  0.22090151  0.16721595  0.16277648    -0.70200
O48         O  0.22139257  0.31679359  0.16235804    -0.61400
O49         O  0.21830514  0.24149105  0.12246531    -0.73900
O50         O  0.22039295  0.24257242  0.20285278    -0.72700
Cu51       Cu  0.30562188  0.24171488  0.16221560     1.04600
Cu52       Cu  0.21739205  0.24198115  0.16263808     1.04300
C53         C  0.26142706  0.24349520  0.21564238     0.93600
C54         C  0.25857693  0.24075609  0.10907935     0.92700
C55         C  0.26302240  0.33970802  0.16225959     0.84900
C56         C  0.26241153  0.14407314  0.16277149     0.91100
O57         O  0.06989380  0.04440469  0.29822621    -0.72600
O58         O  0.42000331  0.04501236  0.29860787    -0.73600
O59         O  0.49488755  0.04471714  0.33899285    -0.62200
O60         O  0.99681856  0.04881038  0.25733279    -0.70600
O61         O  0.99678612  0.46658365  0.25570939    -0.70200
O62         O  0.99615789  0.45981096  0.33727053    -0.61400
O63         O  0.42279944  0.46424466  0.29794695    -0.73900
O64         O  0.07069276  0.46181199  0.29671399    -0.72700
Cu65       Cu  0.99567393  0.04852890  0.29780045     1.04600
Cu66       Cu  0.99621398  0.46019253  0.29642560     1.04300
C67         C  0.09283481  0.00292582  0.29775317     0.93600
C68         C  0.39707356  0.00351036  0.29837517     0.92700
C69         C  0.99463060  0.00115820  0.35052715     0.84900
C70         C  0.99708375  0.00851803  0.24385457     0.91100
O71         O  0.50585630  0.29406365  0.34060057    -0.72600
O72         O  0.50582379  0.30468977  0.25901560    -0.73600
O73         O  0.43188265  0.30014424  0.29978621    -0.62200
O74         O  0.08033015  0.29909860  0.29827550    -0.70600
O75         O  0.08016324  0.21688725  0.29511008    -0.70200
O76         O  0.43193318  0.21783018  0.29730447    -0.61400
O77         O  0.50659560  0.22230651  0.25682468    -0.73900
O78         O  0.50671299  0.21192339  0.33727168    -0.72700
Cu79       Cu  0.50602450  0.30296899  0.29987761     1.04600
Cu80       Cu  0.50672680  0.21491852  0.29699577     1.04300
C81         C  0.50570547  0.25101872  0.35169557     0.93600
C82         C  0.50601294  0.26457275  0.24523488     0.92700
C83         C  0.40848858  0.25905428  0.29869793     0.84900
C84         C  0.10371270  0.25805581  0.29649891     0.91100
O85         O  0.24668527  0.45682832  0.25860118    -0.72600
O86         O  0.24691473  0.46745577  0.33954640    -0.73600
O87         O  0.17229584  0.46148725  0.29895583    -0.62200
O88         O  0.32134721  0.46286819  0.29911440    -0.70600
O89         O  0.31901601  0.04399709  0.29683725    -0.70200
O90         O  0.17053228  0.04367012  0.29687424    -0.61400
O91         O  0.24498914  0.04850167  0.33735387    -0.73900
O92         O  0.24433816  0.03896417  0.25625464    -0.72700
Cu93       Cu  0.24677916  0.45924885  0.29918024     1.04600
Cu94       Cu  0.24465050  0.04663649  0.29671349     1.04300
C95         C  0.24482510  0.99643643  0.24487961     0.93600
C96         C  0.24526642  0.00872191  0.35140273     0.92700
C97         C  0.14711985  0.00254546  0.29799733     0.84900
C98         C  0.34267441  0.00298822  0.29820483     0.91100
O99         O  0.33060085  0.21860360  0.30150165    -0.72600
O100        O  0.18193479  0.21774918  0.29915396    -0.73600
O101        O  0.25904903  0.20975268  0.26002027    -0.62200
O102        O  0.25393618  0.22871341  0.34099791    -0.70600
O103        O  0.25404691  0.31038214  0.33501507    -0.70200
O104        O  0.25870883  0.29177105  0.25510334    -0.61400
O105        O  0.18144715  0.29966742  0.29411292    -0.73900
O106        O  0.33077536  0.30050467  0.29626133    -0.72700
Cu107      Cu  0.25636346  0.21579266  0.30065700     1.04600
Cu108      Cu  0.25620592  0.30339321  0.29491862     1.04300
C109        C  0.35410411  0.25942415  0.29889318     0.93600
C110        C  0.15821882  0.25847468  0.29645493     0.92700
C111        C  0.26019976  0.24832635  0.24497065     0.84900
C112        C  0.25312102  0.27281585  0.35066812     0.91100
O113        O  0.42154959  0.01840345  0.47776670    -0.72600
O114        O  0.07311164  0.01327455  0.47652982    -0.73600
O115        O  0.99787494  0.00850136  0.43653684    -0.62200
O116        O  0.99940478  0.02617579  0.51630998    -0.70600
O117        O  0.99870922  0.44389231  0.52235521    -0.70200
O118        O  0.99757667  0.42569815  0.44080828    -0.61400
O119        O  0.07257784  0.43140822  0.48148829    -0.73900
O120        O  0.42593131  0.43807546  0.48266904    -0.72700
Cu121      Cu  0.99875806  0.01950540  0.47631980     1.04600
Cu122      Cu  0.99812808  0.43114089  0.48179219     1.04300
C123        C  0.39975272  0.97643208  0.48029949     0.93600
C124        C  0.09530593  0.97153687  0.47908716     0.92700
C125        C  0.99638761  0.96544237  0.42585810     0.84900
C126        C  0.99832732  0.98862643  0.53193898     0.91100
O127        O  0.49769270  0.23672485  0.43943566    -0.72600
O128        O  0.49619234  0.23192233  0.52149210    -0.73600
O129        O  0.42269933  0.23064644  0.48023294    -0.62200
O130        O  0.06932395  0.22793147  0.47962903    -0.70600
O131        O  0.07129747  0.31033569  0.48044730    -0.70200
O132        O  0.42022422  0.31301812  0.48135826    -0.61400
O133        O  0.49470013  0.31431203  0.52175706    -0.73900
O134        O  0.49525839  0.31896942  0.44148872    -0.72700
Cu135      Cu  0.49687664  0.23055228  0.48046273     1.04600
Cu136      Cu  0.49486620  0.31867749  0.48163469     1.04300
C137        C  0.49710247  0.27920431  0.42768941     0.93600
C138        C  0.49527791  0.27311104  0.53440365     0.92700
C139        C  0.39804928  0.27101394  0.48086161     0.84900
C140        C  0.09370708  0.26846835  0.48000557     0.91100
O141        O  0.25005241  0.43319247  0.43872769    -0.72600
O142        O  0.24985508  0.42723881  0.51904830    -0.73600
O143        O  0.17494679  0.42984446  0.47877163    -0.62200
O144        O  0.32481035  0.43380259  0.47919541    -0.70600
O145        O  0.32074206  0.01434930  0.48071818    -0.70200
O146        O  0.17309435  0.01136356  0.48023136    -0.61400
O147        O  0.24661814  0.00841922  0.52160090    -0.73900
O148        O  0.24699133  0.01388576  0.43963066    -0.72700
Cu149      Cu  0.25002270  0.42818198  0.47886427     1.04600
Cu150      Cu  0.24682023  0.01490026  0.48062973     1.04300
C151        C  0.24759870  0.97283465  0.42659692     0.93600
C152        C  0.24717032  0.96592505  0.53332429     0.92700
C153        C  0.14969421  0.97030850  0.47948905     0.84900
C154        C  0.34540116  0.97401805  0.48020681     0.91100
O155        O  0.24709534  0.21608505  0.44322944    -0.72600
O156        O  0.24505720  0.23466037  0.52309429    -0.73600
O157        O  0.17122120  0.22597828  0.48254745    -0.62200
O158        O  0.32109486  0.22761033  0.48343315    -0.70600
O159        O  0.31942857  0.30951778  0.47838834    -0.70200
O160        O  0.17167789  0.30787324  0.47734794    -0.61400
O161        O  0.24435648  0.31653856  0.51848098    -0.73900
O162        O  0.24671720  0.29775344  0.43725468    -0.72700
Cu163      Cu  0.24616099  0.22321801  0.48329048     1.04600
Cu164      Cu  0.24551257  0.31076627  0.47764483     1.04300
C165        C  0.24745934  0.25364045  0.42757505     0.93600
C166        C  0.24406047  0.27792715  0.53355355     0.92700
C167        C  0.14804473  0.26720128  0.47993773     0.84900
C168        C  0.34368016  0.26917478  0.48092883     0.91100
O169        O  0.03488692  0.51569701  0.94043501    -0.72600
O170        O  0.02307226  0.51708018  0.02113993    -0.73600
O171        O  0.02854274  0.44204316  0.98112613    -0.62200
O172        O  0.02921443  0.09119467  0.98025989    -0.70600
O173        O  0.45178073  0.09066203  0.97788220    -0.70200
O174        O  0.45323460  0.43873918  0.97906120    -0.61400
O175        O  0.44333659  0.51394188  0.01871287    -0.73900
O176        O  0.45504798  0.51223938  0.93813534    -0.72700
Cu177      Cu  0.03180762  0.51643353  0.98091496     1.04600
Cu178      Cu  0.44669577  0.51304605  0.97832908     1.04300
C179        C  0.49778309  0.51333238  0.92704493     0.93600
C180        C  0.48234016  0.51536254  0.03333282     0.92700
C181        C  0.49527253  0.41682676  0.98064493     0.84900
C182        C  0.49390115  0.11242110  0.97947220     0.91100
O183        O  0.45627567  0.33852376  0.98126358    -0.72600
O184        O  0.45541823  0.19095484  0.98073630    -0.73600
O185        O  0.46173952  0.26403091  0.02212807    -0.62200
O186        O  0.45381442  0.26498218  0.93998926    -0.70600
O187        O  0.03521658  0.26698099  0.94081719    -0.70200
O188        O  0.02156850  0.26592372  0.02149651    -0.61400
O189        O  0.02866874  0.19227114  0.98085010    -0.73900
O190        O  0.02832686  0.34096056  0.98138416    -0.72700
Cu191      Cu  0.45385563  0.26469583  0.98113250     1.04600
Cu192      Cu  0.03129759  0.26659610  0.98129566     1.04300
C193        C  0.49702822  0.36245157  0.98056696     0.93600
C194        C  0.49597694  0.16676730  0.97961586     0.92700
C195        C  0.50474486  0.26347686  0.03333364     0.84900
C196        C  0.49476550  0.26494843  0.92684930     0.91100
O197        O  0.24374538  0.41090890  0.97697379    -0.72600
O198        O  0.24309676  0.06055672  0.97789329    -0.73600
O199        O  0.25097774  0.48677354  0.93758652    -0.62200
O200        O  0.23223170  0.48489275  0.01677393    -0.70600
O201        O  0.31374313  0.48542242  0.02339199    -0.70200
O202        O  0.33294652  0.48642440  0.94163201    -0.61400
O203        O  0.32499060  0.05969038  0.98311602    -0.73900
O204        O  0.32560195  0.41169263  0.98233874    -0.72700
Cu205      Cu  0.23991285  0.48573483  0.97706984     1.04600
Cu206      Cu  0.32745334  0.48574090  0.98277627     1.04300
C207        C  0.28506075  0.38788266  0.97960431     0.93600
C208        C  0.28441383  0.08352685  0.98055790     0.92700
C209        C  0.29386648  0.48713979  0.92681130     0.84900
C210        C  0.26927733  0.48528641  0.03270375     0.91100
O211        O  0.24517723  0.30979338  0.98012498    -0.72600
O212        O  0.24474988  0.16179177  0.98093545    -0.73600
O213        O  0.24869558  0.23658309  0.02157457    -0.62200
O214        O  0.24486037  0.23518221  0.93974645    -0.70600
O215        O  0.32724927  0.23495752  0.93953726    -0.70200
O216        O  0.33102146  0.23618898  0.01999117    -0.61400
O217        O  0.32717213  0.16076048  0.98023320    -0.73900
O218        O  0.32760261  0.31039408  0.97948902    -0.72700
Cu219      Cu  0.24294313  0.23581877  0.98065504     1.04600
Cu220      Cu  0.33110974  0.23554076  0.97977041     1.04300
C221        C  0.28607012  0.33350750  0.97969055     0.93600
C222        C  0.28554350  0.13787195  0.98060481     0.92700
C223        C  0.29095195  0.23677601  0.03356268     0.84900
C224        C  0.28606067  0.23498190  0.92685513     0.91100
O225        O  0.42827375  0.50651195  0.83663102    -0.72600
O226        O  0.44274082  0.50593549  0.75564960    -0.73600
O227        O  0.43412662  0.43196442  0.79614457    -0.62200
O228        O  0.43257588  0.08004922  0.79610557    -0.70600
O229        O  0.01787672  0.08165795  0.79861902    -0.70200
O230        O  0.01918890  0.43277381  0.79921492    -0.61400
O231        O  0.02746881  0.50684869  0.75875068    -0.73900
O232        O  0.01152148  0.50786559  0.83936958    -0.72700
Cu233      Cu  0.43222104  0.50625229  0.79595457     1.04600
Cu234      Cu  0.02226266  0.50734973  0.79925129     1.04300
C235        C  0.96816893  0.50825633  0.84981409     0.93600
C236        C  0.98876037  0.50634031  0.74385184     0.92700
C237        C  0.97811334  0.40947135  0.79679479     0.84900
C238        C  0.97678213  0.10507328  0.79669910     0.91100
O239        O  0.01782275  0.18268701  0.79934092    -0.72600
O240        O  0.01880178  0.33141733  0.79849303    -0.73600
O241        O  0.01164694  0.25822630  0.83936936    -0.62200
O242        O  0.02456336  0.25575910  0.75852042    -0.70600
O243        O  0.43977880  0.25524667  0.75584063    -0.70200
O244        O  0.42351705  0.25683404  0.83647334    -0.61400
O245        O  0.43278628  0.33069577  0.79586919    -0.73900
O246        O  0.43174462  0.18146148  0.79641908    -0.72700
Cu247      Cu  0.02110394  0.25702176  0.79908436     1.04600
Cu248      Cu  0.42904645  0.25609076  0.79596530     1.04300
C249        C  0.97673098  0.15941454  0.79716715     0.93600
C250        C  0.97784714  0.35506750  0.79665710     0.92700
C251        C  0.96852169  0.25891103  0.85010614     0.84900
C252        C  0.98526317  0.25520135  0.74406854     0.91100
O253        O  0.29574744  0.49044654  0.83852561    -0.72600
O254        O  0.28952853  0.48712156  0.75742300    -0.73600
O255        O  0.29185660  0.06435055  0.79723796    -0.62200
O256        O  0.29117865  0.41454720  0.79889941    -0.70600
O257        O  0.20876417  0.41553450  0.80019744    -0.70200
O258        O  0.20946512  0.06342184  0.79846326    -0.61400
O259        O  0.20708476  0.48763425  0.75856350    -0.73900
O260        O  0.21338134  0.49127011  0.83976731    -0.72700
Cu261      Cu  0.29509243  0.48899783  0.79790566     1.04600
Cu262      Cu  0.20691181  0.48965298  0.79926732     1.04300
C263        C  0.25532213  0.49104307  0.85192227     0.93600
C264        C  0.24768275  0.48653191  0.74528917     0.92700
C265        C  0.25028968  0.08732910  0.79767071     0.84900
C266        C  0.24963270  0.39166570  0.79973413     0.91100
O267        O  0.20691369  0.23776351  0.83913647    -0.72600
O268        O  0.20574162  0.24167177  0.75842508    -0.73600
O269        O  0.20781570  0.16482709  0.79791943    -0.62200
O270        O  0.20736988  0.31424941  0.79972852    -0.70600
O271        O  0.28982336  0.31372737  0.79950613    -0.70200
O272        O  0.29024180  0.16559382  0.79759961    -0.61400
O273        O  0.28820941  0.24191404  0.75773286    -0.73900
O274        O  0.28930092  0.23775829  0.83937594    -0.72700
Cu275      Cu  0.20408661  0.23960411  0.79880795     1.04600
Cu276      Cu  0.29230426  0.23974573  0.79854640     1.04300
C277        C  0.24788736  0.23718060  0.85204503     0.93600
C278        C  0.24644995  0.24262623  0.74537859     0.92700
C279        C  0.24935174  0.14177073  0.79762101     0.84900
C280        C  0.24883161  0.33736789  0.79977359     0.91100
O281        O  0.99312062  0.03846271  0.69906330    -0.72600
O282        O  0.99674953  0.01596513  0.61821844    -0.73600
O283        O  0.42049612  0.03035371  0.65932718    -0.62200
O284        O  0.06928366  0.02832390  0.65963679    -0.70600
O285        O  0.07080775  0.44701827  0.66538947    -0.70200
O286        O  0.42176215  0.44791075  0.66486240    -0.61400
O287        O  0.99656193  0.43483288  0.62540096    -0.73900
O288        O  0.99511713  0.45712905  0.70497875    -0.72700
Cu289      Cu  0.99522878  0.03084420  0.65842390     1.04600
Cu290      Cu  0.99600701  0.44388988  0.66537337     1.04300
C291        C  0.99372376  0.50088826  0.71466650     0.93600
C292        C  0.99723941  0.47161998  0.60922313     0.92700
C293        C  0.39827783  0.48890050  0.66212618     0.84900
C294        C  0.09402536  0.48810577  0.66249061     0.91100
O295        O  0.41697970  0.28597582  0.66051985    -0.72600
O296        O  0.06589046  0.28506110  0.66099562    -0.73600
O297        O  0.99272593  0.27856945  0.61975504    -0.62200
O298        O  0.48886785  0.29111252  0.70210044    -0.70600
O299        O  0.48934224  0.20875175  0.70478722    -0.70200
O300        O  0.49334900  0.19871736  0.62389508    -0.61400
O301        O  0.06591649  0.20282023  0.66421258    -0.73900
O302        O  0.41714987  0.20366300  0.66327206    -0.72700
Cu303      Cu  0.99154557  0.28787607  0.66003559     1.04600
Cu304      Cu  0.49154839  0.20100741  0.66444913     1.04300
C305        C  0.39367579  0.24477797  0.66172037     0.93600
C306        C  0.08933084  0.24399202  0.66287119     0.92700
C307        C  0.49378506  0.23832355  0.60972763     0.84900
C308        C  0.48777875  0.25128134  0.71609133     0.91100
O309        O  0.17218253  0.44797651  0.66170019    -0.72600
O310        O  0.32045083  0.44828570  0.66155185    -0.73600
O311        O  0.24658570  0.44617465  0.70247260    -0.62200
O312        O  0.24626613  0.45314547  0.62058115    -0.70600
O313        O  0.24420457  0.03528853  0.62325609    -0.70200
O314        O  0.24575287  0.02880633  0.70377807    -0.61400
O315        O  0.31952260  0.03110400  0.66297007    -0.73900
O316        O  0.17020935  0.03012088  0.66366511    -0.72700
Cu317      Cu  0.24634629  0.44593219  0.66149178     1.04600
Cu318      Cu  0.24486666  0.03415573  0.66350926     1.04300
C319        C  0.14838979  0.48886225  0.66253057     0.93600
C320        C  0.34395899  0.48931964  0.66223468     0.92700
C321        C  0.24653648  0.48689252  0.71576203     0.84900
C322        C  0.24624263  0.49584460  0.60907561     0.91100
O323        O  0.16706378  0.28545395  0.66307917    -0.72600
O324        O  0.31590240  0.28593642  0.66180087    -0.73600
O325        O  0.24027175  0.28626910  0.62173287    -0.62200
O326        O  0.24345758  0.28500575  0.70330251    -0.70600
O327        O  0.24385010  0.20252286  0.70303801    -0.70200
O328        O  0.24012809  0.20386398  0.62216636    -0.61400
O329        O  0.31605413  0.20347288  0.66182527    -0.73900
O330        O  0.16731495  0.20301445  0.66336463    -0.72700
Cu331      Cu  0.24158191  0.28862509  0.66251626     1.04600
Cu332      Cu  0.24177614  0.20039901  0.66258654     1.04300
C333        C  0.14375217  0.24415761  0.66321352     0.93600
C334        C  0.33936011  0.24473172  0.66167842     0.92700
C335        C  0.24004367  0.24483497  0.60916518     0.84900
C336        C  0.24479148  0.24352786  0.71586894     0.91100
C337        C  0.28740184  0.23506712  0.89706588    -0.16100
C338        C  0.24623930  0.23602663  0.88183708    -0.31300
H339        H  0.32362424  0.23480087  0.88740172     0.12900
H340        H  0.20999326  0.23629223  0.89147157     0.13500
C341        C  0.29733213  0.48841824  0.89695327    -0.16100
C342        C  0.25581208  0.49105323  0.88169596    -0.31300
H343        H  0.33365229  0.48691631  0.88749709     0.12900
H344        H  0.22038548  0.99259973  0.89152602     0.13500
C345        C  0.49646196  0.26407721  0.89714134    -0.16100
C346        C  0.96289331  0.26085985  0.87970156    -0.31300
H347        H  0.03934957  0.26622705  0.88830225     0.12900
H348        H  0.41962770  0.25746546  0.88978838     0.13500
C349        C  0.00122229  0.51324815  0.89622268    -0.16100
C350        C  0.96213424  0.50990743  0.87941220    -0.31300
H351        H  0.03862186  0.51429141  0.88808508     0.12900
H352        H  0.42378719  0.00836190  0.88947234     0.13500
C353        C  0.24253865  0.28309279  0.56331105    -0.16100
C354        C  0.24017504  0.24281476  0.57939760    -0.31300
H355        H  0.24355329  0.32005436  0.57203441     0.12900
H356        H  0.23910344  0.20605823  0.57040254     0.13500
C357        C  0.24672073  0.96121340  0.56305195    -0.16100
C358        C  0.24668956  0.50097358  0.57934914    -0.31300
H359        H  0.24937437  0.42458450  0.57111650     0.12900
H360        H  0.24380980  0.03770084  0.57105063     0.13500
C361        C  0.49478287  0.27485264  0.56416206    -0.16100
C362        C  0.49478342  0.23435658  0.57995639    -0.31300
H363        H  0.99588013  0.30824789  0.57219778     0.12900
H364        H  0.49527877  0.19758878  0.57091289     0.13500
C365        C  0.99786477  0.46130132  0.57989592    -0.16100
C366        C  0.99843142  0.99786970  0.56132142    -0.31300
H367        H  0.99688456  0.42280932  0.57344466     0.12900
H368        H  0.49507730  0.04204836  0.56954577     0.13500
C369        C  0.25106018  0.28171189  0.38007183    -0.16100
C370        C  0.24901869  0.24471541  0.39816507    -0.31300
H371        H  0.25121288  0.31995796  0.38696728     0.12900
H372        H  0.24890767  0.20646600  0.39127721     0.13500
C373        C  0.24585432  0.01223360  0.38120315    -0.16100
C374        C  0.24722003  0.97149497  0.39682362    -0.31300
H375        H  0.24653293  0.55052826  0.38989532     0.12900
H376        H  0.24790299  0.93500545  0.38742035     0.13500
C377        C  0.50393848  0.24523098  0.38137187    -0.16100
C378        C  0.49890553  0.28408351  0.39799661    -0.31300
H379        H  0.50616025  0.20796070  0.38967292     0.12900
H380        H  0.99683584  0.31928448  0.38871304     0.13500
C381        C  0.99551431  0.96098994  0.39603092    -0.16100
C382        C  0.99497811  0.00185162  0.38031120    -0.31300
H383        H  0.99529966  0.92428201  0.38698934     0.12900
H384        H  0.49656215  0.54349036  0.39069679     0.13500
C385        C  0.25496138  0.23969577  0.07933919    -0.16100
C386        C  0.29485960  0.23782853  0.06330559    -0.31300
H387        H  0.21808267  0.24027019  0.07041360     0.12900
H388        H  0.33176493  0.23727692  0.07220257     0.13500
C389        C  0.29269855  0.98967917  0.08112391    -0.16100
C390        C  0.25867843  0.48593079  0.06192684    -0.31300
H391        H  0.33270852  0.49192799  0.07477550     0.12900
H392        H  0.21874236  0.98459125  0.06821763     0.13500
C393        C  0.47315564  0.26223500  0.08027714    -0.16100
C394        C  0.51112611  0.26285545  0.06291252    -0.31300
H395        H  0.43527760  0.26200508  0.07271808     0.12900
H396        H  0.93616443  0.26590929  0.07046699     0.13500
C397        C  0.47672556  0.51577857  0.06296564    -0.16100
C398        C  0.51594921  0.51618994  0.07970142    -0.31300
H399        H  0.93971740  0.01721730  0.07037376     0.12900
H400        H  0.55329645  0.51630756  0.07145329     0.13500
O401        O  0.46706141  0.58987588  0.16183130    -0.72600
O402        O  0.46493141  0.93802741  0.15971086    -0.73600
O403        O  0.45650863  0.00848683  0.20177747    -0.62200
O404        O  0.46556314  0.01515730  0.12047330    -0.70600
O405        O  0.05215348  0.01702978  0.12213442    -0.70200
O406        O  0.04319761  0.51218285  0.20297319    -0.61400
O407        O  0.04845096  0.94069919  0.16159835    -0.73900
O408        O  0.04801901  0.58889229  0.16339015    -0.72700
Cu409      Cu  0.45776516  0.01188445  0.16103615     1.04600
Cu410      Cu  0.05027398  0.51443847  0.16255224     1.04300
C411        C  0.00705780  0.61266980  0.16225426     0.93600
C412        C  0.00751358  0.91704929  0.16002032     0.92700
C413        C  0.00075940  0.51125517  0.21440561     0.84900
C414        C  0.50833980  0.01734556  0.10932043     0.91100
O415        O  0.46905248  0.68985321  0.16238229    -0.72600
O416        O  0.46781982  0.83797940  0.16053964    -0.73600
O417        O  0.47088779  0.76251857  0.12093884    -0.62200
O418        O  0.46626316  0.76570113  0.20210290    -0.70600
O419        O  0.04672661  0.76693769  0.20256033    -0.70200
O420        O  0.05227578  0.76351919  0.12178286    -0.61400
O421        O  0.04919135  0.83949654  0.16120821    -0.73900
O422        O  0.04883969  0.69040169  0.16306830    -0.72700
Cu423      Cu  0.46567329  0.76398556  0.16144333     1.04600
Cu424      Cu  0.05212331  0.76507056  0.16221851     1.04300
C425        C  0.51011026  0.66623223  0.16338945     0.93600
C426        C  0.50861152  0.86200458  0.16109860     0.92700
C427        C  0.51288617  0.76243154  0.10898088     0.84900
C428        C  0.50681893  0.76648954  0.21549931     0.91100
O429        O  0.22322742  0.56574222  0.15876885    -0.72600
O430        O  0.22132993  0.91814949  0.15976454    -0.73600
O431        O  0.21199202  0.99341713  0.19998756    -0.62200
O432        O  0.23764199  0.49091358  0.11863421    -0.70600
O433        O  0.31880064  0.49193125  0.12640764    -0.70200
O434        O  0.29531218  0.49232408  0.20555982    -0.61400
O435        O  0.30296575  0.91684453  0.16607265    -0.73900
O436        O  0.30469638  0.56690177  0.16573193    -0.72700
Cu437      Cu  0.22013428  0.99222921  0.15915626     1.04600
Cu438      Cu  0.30880267  0.49204277  0.16612287     1.04300
C439        C  0.26341852  0.58971751  0.16238786     0.93600
C440        C  0.26168160  0.89407919  0.16277340     0.92700
C441        C  0.25158593  0.49343102  0.21519921     0.84900
C442        C  0.28251672  0.49099235  0.10994579     0.91100
O443        O  0.30153401  0.74317600  0.20296789    -0.72600
O444        O  0.29878923  0.74105191  0.12120412    -0.73600
O445        O  0.30149280  0.81599705  0.16186719    -0.62200
O446        O  0.30259302  0.66812466  0.16265685    -0.70600
O447        O  0.22015737  0.66675795  0.16271647    -0.70200
O448        O  0.21906345  0.81655486  0.16246107    -0.61400
O449        O  0.21643649  0.74116366  0.12247542    -0.73900
O450        O  0.21903876  0.74211497  0.20287847    -0.72700
Cu451      Cu  0.30401423  0.74205381  0.16212405     1.04600
Cu452      Cu  0.21578985  0.74157323  0.16266399     1.04300
C453        C  0.26014129  0.74354284  0.21558993     0.93600
C454        C  0.25668707  0.74065561  0.10906585     0.92700
C455        C  0.26058112  0.83969601  0.16234129     0.84900
C456        C  0.26192535  0.64404669  0.16263396     0.91100
O457        O  0.07149234  0.54423285  0.29804038    -0.72600
O458        O  0.42149565  0.54667320  0.29850708    -0.73600
O459        O  0.49623701  0.54652775  0.33902796    -0.62200
O460        O  0.99794709  0.54899702  0.25741618    -0.70600
O461        O  0.99556153  0.96639037  0.25577026    -0.70200
O462        O  0.99424394  0.96036851  0.33735331    -0.61400
O463        O  0.42098495  0.96257413  0.29825907    -0.73900
O464        O  0.06902732  0.96197804  0.29699395    -0.72700
Cu465      Cu  0.99732648  0.54836558  0.29789565     1.04600
Cu466      Cu  0.99462042  0.96034490  0.29651547     1.04300
C467        C  0.09446972  0.50278959  0.29745078     0.93600
C468        C  0.39872624  0.50508221  0.29809821     0.92700
C469        C  0.99671474  0.50049425  0.35053710     0.84900
C470        C  0.99807250  0.50878292  0.24386644     0.91100
O471        O  0.50491543  0.79374579  0.34035444    -0.72600
O472        O  0.50521414  0.80490786  0.25877405    -0.73600
O473        O  0.43110861  0.80027972  0.29945957    -0.62200
O474        O  0.07974077  0.80039571  0.29826719    -0.70600
O475        O  0.07962079  0.71817643  0.29510744    -0.70200
O476        O  0.43093759  0.71795322  0.29700619    -0.61400
O477        O  0.50542185  0.72252445  0.25651830    -0.73900
O478        O  0.50580275  0.71162338  0.33690336    -0.72700
Cu479      Cu  0.50513265  0.80298346  0.29965251     1.04600
Cu480      Cu  0.50567408  0.71494058  0.29665764     1.04300
C481        C  0.50496386  0.75063627  0.35138614     0.93600
C482        C  0.50550601  0.76481840  0.24496479     0.92700
C483        C  0.40763260  0.75925668  0.29837945     0.84900
C484        C  0.10313002  0.75936236  0.29652603     0.91100
O485        O  0.24481189  0.95661253  0.25887854    -0.72600
O486        O  0.24508917  0.96625743  0.33986478    -0.73600
O487        O  0.17045116  0.96131612  0.29925835    -0.62200
O488        O  0.31947786  0.96168300  0.29942186    -0.70600
O489        O  0.32044449  0.54515386  0.29630811    -0.70200
O490        O  0.17197029  0.54381513  0.29632066    -0.61400
O491        O  0.24634581  0.54966843  0.33678770    -0.73900
O492        O  0.24579110  0.53915623  0.25574788    -0.72700
Cu493      Cu  0.24489821  0.95855970  0.29947393     1.04600
Cu494      Cu  0.24605208  0.54729522  0.29615785     1.04300
C495        C  0.24646119  0.49652460  0.24449830     0.93600
C496        C  0.24682541  0.51004070  0.35095970     0.92700
C497        C  0.14875985  0.50258703  0.29758708     0.84900
C498        C  0.34432494  0.50429049  0.29781336     0.91100
O499        O  0.32967888  0.71914113  0.30131334    -0.72600
O500        O  0.18119019  0.71899382  0.29930286    -0.73600
O501        O  0.25782102  0.71023137  0.26004701    -0.62200
O502        O  0.25352028  0.73008677  0.34092154    -0.70600
O503        O  0.25378675  0.81171728  0.33478826    -0.70200
O504        O  0.25790443  0.79220990  0.25490758    -0.61400
O505        O  0.18090392  0.80086875  0.29401243    -0.73900
O506        O  0.33017031  0.80101939  0.29592247    -0.72700
Cu507      Cu  0.25551721  0.71671799  0.30064587     1.04600
Cu508      Cu  0.25566235  0.80428300  0.29469165     1.04300
C509        C  0.35331238  0.75984467  0.29859908     0.93600
C510        C  0.15759420  0.75975063  0.29650029     0.92700
C511        C  0.25908114  0.74865722  0.24489546     0.84900
C512        C  0.25294876  0.77424794  0.35051498     0.91100
O513        O  0.42333468  0.51998099  0.47771294    -0.72600
O514        O  0.07427240  0.51331038  0.47644199    -0.73600
O515        O  0.99907553  0.50759361  0.43653997    -0.62200
O516        O  0.00054489  0.52551690  0.51629468    -0.70600
O517        O  0.99699591  0.94452598  0.52223675    -0.70200
O518        O  0.99560796  0.92660142  0.44076564    -0.61400
O519        O  0.07066317  0.93136590  0.48145083    -0.73900
O520        O  0.42476629  0.93657478  0.48297286    -0.72700
Cu521      Cu  0.99989913  0.51868759  0.47630735     1.04600
Cu522      Cu  0.99623845  0.93194865  0.48171441     1.04300
C523        C  0.40122856  0.47813426  0.48007025     0.93600
C524        C  0.09684630  0.47179071  0.47900024     0.92700
C525        C  0.99804448  0.46451723  0.42587350     0.84900
C526        C  0.99966384  0.48806280  0.53199417     0.91100
O527        O  0.49930485  0.73653072  0.43928438    -0.72600
O528        O  0.49800118  0.73298086  0.52141675    -0.73600
O529        O  0.42454517  0.73143978  0.48013540    -0.62200
O530        O  0.07157379  0.72687851  0.47946494    -0.70600
O531        O  0.07307882  0.80927320  0.48073649    -0.70200
O532        O  0.42232091  0.81383183  0.48092386    -0.61400
O533        O  0.49680778  0.81537142  0.52136716    -0.73900
O534        O  0.49747890  0.81880758  0.44111979    -0.72700
Cu535      Cu  0.49861639  0.73092283  0.48036067     1.04600
Cu536      Cu  0.49706946  0.81906680  0.48122999     1.04300
C537        C  0.49886249  0.77891371  0.42742738     0.93600
C538        C  0.49723557  0.77434768  0.53417774     0.92700
C539        C  0.40002192  0.77187932  0.48057048     0.84900
C540        C  0.09572403  0.76755528  0.48008523     0.91100
O541        O  0.24840584  0.93150207  0.43912897    -0.72600
O542        O  0.24804923  0.92617667  0.51948188    -0.73600
O543        O  0.17314551  0.92896266  0.47912641    -0.62200
O544        O  0.32323208  0.93198215  0.47963961    -0.70600
O545        O  0.32214950  0.51616146  0.48044204    -0.70200
O546        O  0.17437154  0.51224037  0.47999375    -0.61400
O547        O  0.24802057  0.50945537  0.52135984    -0.73900
O548        O  0.24829489  0.51556554  0.43931866    -0.72700
Cu549      Cu  0.24829638  0.92678714  0.47928743     1.04600
Cu550      Cu  0.24814205  0.51628024  0.48036444     1.04300
C551        C  0.24909288  0.47456077  0.42623738     0.93600
C552        C  0.24880051  0.46686400  0.53298925     0.92700
C553        C  0.15123604  0.47102089  0.47925176     0.84900
C554        C  0.34688593  0.47587066  0.47987100     0.91100
O555        O  0.24907230  0.71697213  0.44294335    -0.72600
O556        O  0.24756103  0.73422298  0.52294591    -0.73600
O557        O  0.17351453  0.72557376  0.48245345    -0.62200
O558        O  0.32325835  0.72832436  0.48305935    -0.70600
O559        O  0.32124025  0.81026775  0.47822998    -0.70200
O560        O  0.17341771  0.80754593  0.47761961    -0.61400
O561        O  0.24649952  0.81614128  0.51857244    -0.73900
O562        O  0.24805767  0.79870838  0.43726270    -0.72700
Cu563      Cu  0.24843074  0.72340885  0.48304886     1.04600
Cu564      Cu  0.24725312  0.81101900  0.47771646     1.04300
C565        C  0.24892724  0.75472560  0.42742389     0.93600
C566        C  0.24647984  0.77738650  0.53353482     0.92700
C567        C  0.15006307  0.76666736  0.48003270     0.84900
C568        C  0.34566222  0.76999783  0.48064101     0.91100
O569        O  0.03508314  0.01609149  0.94015881    -0.72600
O570        O  0.02419681  0.01738988  0.02098817    -0.73600
O571        O  0.02992739  0.94231109  0.98089713    -0.62200
O572        O  0.02929369  0.59084248  0.98047272    -0.70600
O573        O  0.44658221  0.58774971  0.97794464    -0.70200
O574        O  0.44468232  0.94143408  0.97880418    -0.61400
O575        O  0.44123148  0.01733151  0.01854853    -0.73900
O576        O  0.45351159  0.01470980  0.93801777    -0.72700
Cu577      Cu  0.03248284  0.01679377  0.98068632     1.04600
Cu578      Cu  0.44492436  0.01623237  0.97817171     1.04300
C579        C  0.49627480  0.01222791  0.92703188     0.93600
C580        C  0.48013650  0.01666069  0.03326298     0.92700
C581        C  0.48514133  0.91689176  0.98083600     0.84900
C582        C  0.48697061  0.61237469  0.97982181     0.91100
O583        O  0.44338205  0.83908374  0.97900205    -0.72600
O584        O  0.44446342  0.68973704  0.97866939    -0.73600
O585        O  0.43920214  0.76393588  0.01943533    -0.62200
O586        O  0.44912369  0.76445784  0.93829895    -0.70600
O587        O  0.03568177  0.76663311  0.94054612    -0.70200
O588        O  0.02376699  0.76597839  0.02126420    -0.61400
O589        O  0.02955536  0.69203704  0.98069378    -0.73900
O590        O  0.02997987  0.84091332  0.98104517    -0.72700
Cu591      Cu  0.44109088  0.76433798  0.97874715     1.04600
Cu592      Cu  0.03262387  0.76643502  0.98102385     1.04300
C593        C  0.48449453  0.86248165  0.98076686     0.93600
C594        C  0.48587873  0.66674877  0.98001497     0.92700
C595        C  0.47886214  0.76365383  0.03363042     0.84900
C596        C  0.49200603  0.76455551  0.92726360     0.91100
O597        O  0.24336246  0.91086442  0.97719404    -0.72600
O598        O  0.24359601  0.56053678  0.97780472    -0.73600
O599        O  0.25103239  0.98664502  0.93774999    -0.62200
O600        O  0.23134775  0.98502194  0.01693077    -0.70600
O601        O  0.31279135  0.98562490  0.02377626    -0.70200
O602        O  0.33294854  0.98627888  0.94208056    -0.61400
O603        O  0.32553451  0.55968030  0.98280894    -0.73900
O604        O  0.32514732  0.91173368  0.98285471    -0.72700
Cu605      Cu  0.23947557  0.98572181  0.97722017     1.04600
Cu606      Cu  0.32694734  0.98577050  0.98320442     1.04300
C607        C  0.28467262  0.88787777  0.97996940     0.93600
C608        C  0.28492207  0.58351053  0.98040009     0.92700
C609        C  0.29405462  0.98697822  0.92711880     0.84900
C610        C  0.26824486  0.98550559  0.03297019     0.91100
O611        O  0.24495977  0.80967081  0.98011454    -0.72600
O612        O  0.24509930  0.66166699  0.98071514    -0.73600
O613        O  0.24772902  0.73627588  0.02146555    -0.62200
O614        O  0.24591279  0.73522460  0.93963993    -0.70600
O615        O  0.32829976  0.73534948  0.93989206    -0.70200
O616        O  0.33006757  0.73597283  0.02033825    -0.61400
O617        O  0.32752818  0.66084879  0.98041858    -0.73900
O618        O  0.32738436  0.81048930  0.98001991    -0.72700
Cu619      Cu  0.24300068  0.73567628  0.98051796     1.04600
Cu620      Cu  0.33117060  0.73564616  0.98014913     1.04300
C621        C  0.28579302  0.83349784  0.97999645     0.93600
C622        C  0.28595902  0.63785345  0.98054590     0.92700
C623        C  0.28975188  0.73647566  0.03368006     0.84900
C624        C  0.28735690  0.73524313  0.92697950     0.91100
O625        O  0.42669089  0.00597784  0.83664304    -0.72600
O626        O  0.44107374  0.00567690  0.75566633    -0.73600
O627        O  0.43372823  0.93144840  0.79614724    -0.62200
O628        O  0.43528168  0.58039079  0.79605513    -0.70600
O629        O  0.01928763  0.58178899  0.79898890    -0.70200
O630        O  0.01771758  0.93283964  0.79910844    -0.61400
O631        O  0.02555246  0.00651306  0.75849743    -0.73900
O632        O  0.01050244  0.00805675  0.83913772    -0.72700
Cu633      Cu  0.43060606  0.00578340  0.79597337     1.04600
Cu634      Cu  0.02077816  0.00730007  0.79899556     1.04300
C635        C  0.96727446  0.00848671  0.84972461     0.93600
C636        C  0.98675054  0.00588152  0.74367799     0.92700
C637        C  0.97669249  0.90943712  0.79682066     0.84900
C638        C  0.97814516  0.60510773  0.79694669     0.91100
O639        O  0.01867824  0.68303664  0.79961669    -0.72600
O640        O  0.01791104  0.83175430  0.79871168    -0.73600
O641        O  0.01118551  0.75850934  0.83950460    -0.62200
O642        O  0.02527361  0.75618786  0.75883588    -0.70600
O643        O  0.44203420  0.75513180  0.75568549    -0.70200
O644        O  0.42604410  0.75634413  0.83622565    -0.61400
O645        O  0.43393621  0.83023492  0.79571036    -0.73900
O646        O  0.43473461  0.68128949  0.79620588    -0.72700
Cu647      Cu  0.02113206  0.75741837  0.79933232     1.04600
Cu648      Cu  0.43130451  0.75573282  0.79577973     1.04300
C649        C  0.97779143  0.65943615  0.79736134     0.93600
C650        C  0.97676746  0.85504450  0.79672667     0.92700
C651        C  0.96800972  0.75881599  0.85016488     0.84900
C652        C  0.98623347  0.75517756  0.74420281     0.91100
O653        O  0.29668741  0.99090073  0.83868391    -0.72600
O654        O  0.28999573  0.98783887  0.75747436    -0.73600
O655        O  0.29224522  0.56380645  0.79708495    -0.62200
O656        O  0.29318667  0.91503734  0.79892030    -0.70600
O657        O  0.21077836  0.91516428  0.80041099    -0.70200
O658        O  0.20984928  0.56391819  0.79824905    -0.61400
O659        O  0.20756393  0.98718548  0.75884281    -0.73900
O660        O  0.21431937  0.99086979  0.83994257    -0.72700
Cu661      Cu  0.29588201  0.98960174  0.79799723     1.04600
Cu662      Cu  0.20770734  0.98916887  0.79949565     1.04300
C663        C  0.25624873  0.99104587  0.85209179     0.93600
C664        C  0.24802642  0.98672911  0.74545639     0.92700
C665        C  0.25098576  0.58731886  0.79751106     0.84900
C666        C  0.25189203  0.89172514  0.79984429     0.91100
O667        O  0.20904624  0.73785403  0.83910953    -0.72600
O668        O  0.20804428  0.74220598  0.75841252    -0.73600
O669        O  0.20936489  0.66519879  0.79778569    -0.62200
O670        O  0.20992975  0.81435611  0.79982449    -0.70600
O671        O  0.29238378  0.81373988  0.79957059    -0.70200
O672        O  0.29179381  0.66528609  0.79763176    -0.61400
O673        O  0.29051613  0.74178689  0.75780604    -0.73900
O674        O  0.29143559  0.73760602  0.83943686    -0.72700
Cu675      Cu  0.20625270  0.73989950  0.79878991     1.04600
Cu676      Cu  0.29447107  0.73957693  0.79860720     1.04300
C677        C  0.24997639  0.73715635  0.85205883     0.93600
C678        C  0.24881105  0.74287658  0.74541177     0.92700
C679        C  0.25068424  0.64179110  0.79753353     0.84900
C680        C  0.25139366  0.83742659  0.79986325     0.91100
O681        O  0.99488029  0.53896686  0.69921918    -0.72600
O682        O  0.99732604  0.51618833  0.61831430    -0.73600
O683        O  0.42156689  0.52979288  0.65947762    -0.62200
O684        O  0.07042018  0.52875039  0.65942718    -0.70600
O685        O  0.06963781  0.94659425  0.66558389    -0.70200
O686        O  0.42068466  0.94846445  0.66468727    -0.61400
O687        O  0.99603322  0.93456556  0.62517021    -0.73900
O688        O  0.99310516  0.95661657  0.70478266    -0.72700
Cu689      Cu  0.99635458  0.53123743  0.65855386     1.04600
Cu690      Cu  0.99476446  0.94347252  0.66515128     1.04300
C691        C  0.99166079  0.00037156  0.71448723     0.93600
C692        C  0.99677475  0.97145495  0.60906118     0.92700
C693        C  0.39720671  0.98944992  0.66193192     0.84900
C694        C  0.09288573  0.98770199  0.66280012     0.91100
O695        O  0.41941573  0.78721081  0.66057759    -0.72600
O696        O  0.06834440  0.78391371  0.66118744    -0.73600
O697        O  0.99558444  0.77675802  0.61980786    -0.62200
O698        O  0.49145876  0.79208053  0.70213872    -0.70600
O699        O  0.49186845  0.70969423  0.70460519    -0.70200
O700        O  0.49596117  0.70045991  0.62373934    -0.61400
O701        O  0.06844301  0.70172433  0.66474374    -0.73900
O702        O  0.41983915  0.70487584  0.66310816    -0.72700
Cu703      Cu  0.99404996  0.78673862  0.66004777     1.04600
Cu704      Cu  0.49414420  0.70235492  0.66427922     1.04300
C705        C  0.39623659  0.74591425  0.66168762     0.93600
C706        C  0.09183231  0.74289887  0.66319764     0.92700
C707        C  0.49625340  0.74011803  0.60961667     0.84900
C708        C  0.49028594  0.75211217  0.71601785     0.91100
O709        O  0.17120318  0.94773195  0.66218085    -0.72600
O710        O  0.31949389  0.94869357  0.66150094    -0.73600
O711        O  0.24627910  0.94635449  0.70267682    -0.62200
O712        O  0.24482014  0.95302929  0.62085169    -0.70600
O713        O  0.24590753  0.53538683  0.62313097    -0.70200
O714        O  0.24625964  0.52862341  0.70362654    -0.61400
O715        O  0.32068696  0.53068729  0.66312631    -0.73900
O716        O  0.17140917  0.53036846  0.66326908    -0.72700
Cu717      Cu  0.24542404  0.94600098  0.66172583     1.04600
Cu718      Cu  0.24604020  0.53408026  0.66337783     1.04300
C719        C  0.14728466  0.98855162  0.66297212     0.93600
C720        C  0.34289426  0.98979501  0.66206959     0.92700
C721        C  0.24644115  0.98709396  0.71593701     0.84900
C722        C  0.24456121  0.99565219  0.60927621     0.91100
O723        O  0.16934447  0.78468257  0.66307923    -0.72600
O724        O  0.31815168  0.78654825  0.66179448    -0.73600
O725        O  0.24259469  0.78578519  0.62168701    -0.62200
O726        O  0.24561880  0.78513191  0.70328948    -0.70600
O727        O  0.24679170  0.70265373  0.70312627    -0.70200
O728        O  0.24292702  0.70338917  0.62226251    -0.61400
O729        O  0.31891484  0.70408958  0.66187653    -0.73900
O730        O  0.17009954  0.70225297  0.66357286    -0.72700
Cu731      Cu  0.24380573  0.78849238  0.66248754     1.04600
Cu732      Cu  0.24465218  0.70027566  0.66270009     1.04300
C733        C  0.14627658  0.74325423  0.66339713     0.93600
C734        C  0.34191703  0.74552995  0.66168574     0.92700
C735        C  0.24266304  0.74427384  0.60918359     0.84900
C736        C  0.24728801  0.74371186  0.71590564     0.91100
C737        C  0.28917134  0.73538211  0.89719728    -0.16100
C738        C  0.24816808  0.73602806  0.88183966    -0.31300
H739        H  0.32552508  0.73535916  0.88766027     0.12900
H740        H  0.21181737  0.73608466  0.89137767     0.13500
C741        C  0.29789594  0.98823500  0.89726245    -0.16100
C742        C  0.25657240  0.99102980  0.88187121    -0.31300
H743        H  0.33430810  0.98658114  0.88791457     0.12900
H744        H  0.21971854  0.49254544  0.89144375     0.13500
C745        C  0.49726324  0.76323855  0.89765583    -0.16100
C746        C  0.96241829  0.76067923  0.87976050    -0.31300
H747        H  0.03897568  0.76590924  0.88812462     0.12900
H748        H  0.42085956  0.75753699  0.88892280     0.13500
C749        C  0.00090522  0.01343662  0.89603593    -0.16100
C750        C  0.96160153  0.01018851  0.87935293    -0.31300
H751        H  0.03819431  0.01446707  0.88776954     0.12900
H752        H  0.42534813  0.50727771  0.88949288     0.13500
C753        C  0.24510871  0.78237982  0.56330743    -0.16100
C754        C  0.24291866  0.74210585  0.57940246    -0.31300
H755        H  0.24596636  0.81932874  0.57204755     0.12900
H756        H  0.24202233  0.70534038  0.57041542     0.13500
C757        C  0.24838571  0.46185313  0.56271739    -0.16100
C758        C  0.24485152  0.00051802  0.57954990    -0.31300
H759        H  0.24784116  0.92403451  0.57156311     0.12900
H760        H  0.24580894  0.53824377  0.57095804     0.13500
C761        C  0.49676972  0.77647376  0.56394650    -0.16100
C762        C  0.49710028  0.73611689  0.57984112    -0.31300
H763        H  0.99799728  0.80586419  0.57228381     0.12900
H764        H  0.49777060  0.69930783  0.57086074     0.13500
C765        C  0.99744982  0.96138964  0.57972774    -0.16100
C766        C  0.99955194  0.49756160  0.56137435    -0.31300
H767        H  0.99688212  0.92294388  0.57317368     0.12900
H768        H  0.49667041  0.54194230  0.56963630     0.13500
C769        C  0.25132032  0.78320644  0.37992591    -0.16100
C770        C  0.24998958  0.74611563  0.39798653    -0.31300
H771        H  0.25131871  0.82144277  0.38684556     0.12900
H772        H  0.25007490  0.70790084  0.39103475     0.13500
C773        C  0.24732055  0.51383971  0.38076057    -0.16100
C774        C  0.24879316  0.47320714  0.39645899    -0.31300
H775        H  0.24524768  0.04886371  0.39041448     0.12900
H776        H  0.24965101  0.43668211  0.38710319     0.13500
C777        C  0.50373972  0.74471228  0.38106173    -0.16100
C778        C  0.50016733  0.78364055  0.39772959    -0.31300
H779        H  0.50533836  0.70737399  0.38932471     0.12900
H780        H  0.99853331  0.81966113  0.38905196     0.13500
C781        C  0.99735143  0.46007866  0.39602939    -0.16100
C782        C  0.99712654  0.50098744  0.38033046    -0.31300
H783        H  0.99700813  0.42338226  0.38696390     0.12900
H784        H  0.49561932  0.04192430  0.39059990     0.13500
C785        C  0.25313509  0.73944482  0.07932741    -0.16100
C786        C  0.29320398  0.73751263  0.06342135    -0.31300
H787        H  0.21635566  0.73995469  0.07032729     0.12900
H788        H  0.32998298  0.73699538  0.07242800     0.13500
C789        C  0.29401214  0.48981980  0.08079615    -0.16100
C790        C  0.25741490  0.98626683  0.06218320    -0.31300
H791        H  0.33141036  0.99135375  0.07516803     0.12900
H792        H  0.22002621  0.48386817  0.06803923     0.13500
C793        C  0.51568565  0.76211015  0.07924791    -0.16100
C794        C  0.47512602  0.76299142  0.06336471    -0.31300
H795        H  0.55235338  0.76168299  0.07021948     0.12900
H796        H  0.93906303  0.76636788  0.07052898     0.13500
C797        C  0.47434249  0.01741305  0.06288955    -0.16100
C798        C  0.51348321  0.01837289  0.07967780    -0.31300
H799        H  0.93844824  0.51748800  0.07044389     0.12900
H800        H  0.55085698  0.01929485  0.07146268     0.13500
O801        O  0.96479421  0.08900509  0.16084773    -0.72600
O802        O  0.96474468  0.44052272  0.15905556    -0.73600
O803        O  0.96083329  0.51271258  0.20048617    -0.62200
O804        O  0.96910336  0.51675411  0.11938738    -0.70600
O805        O  0.55020729  0.51384039  0.12364419    -0.70200
O806        O  0.53876042  0.01306228  0.20419519    -0.61400
O807        O  0.54044417  0.43751321  0.16268545    -0.73900
O808        O  0.53800451  0.09015804  0.16486044    -0.72700
Cu809      Cu  0.96219047  0.51496999  0.15984668     1.04600
Cu810      Cu  0.54573293  0.01593856  0.16398442     1.04300
C811        C  0.49572035  0.11173246  0.16394939     0.93600
C812        C  0.49803151  0.41624445  0.16159032     0.92700
C813        C  0.49656817  0.00943451  0.21564805     0.84900
C814        C  0.01156778  0.51698384  0.10791514     0.91100
O815        O  0.96467754  0.19047893  0.16135289    -0.72600
O816        O  0.96469709  0.33926114  0.15994552    -0.73600
O817        O  0.96724485  0.26387172  0.11993322    -0.62200
O818        O  0.96306343  0.26614317  0.20149226    -0.70600
O819        O  0.54166660  0.26526826  0.20125268    -0.70200
O820        O  0.52490950  0.26251393  0.11997183    -0.61400
O821        O  0.53574248  0.33747085  0.15978122    -0.73900
O822        O  0.53434992  0.19003708  0.16148638    -0.72700
Cu823      Cu  0.96196435  0.26494811  0.16064181     1.04600
Cu824      Cu  0.53701716  0.26378991  0.16042566     1.04300
C825        C  0.00583840  0.16701890  0.16236739     0.93600
C826        C  0.00588297  0.36266461  0.16037398     0.92700
C827        C  0.00942118  0.26346831  0.10809969     0.84900
C828        C  0.00387034  0.26667571  0.21473265     0.91100
O829        O  0.72112911  0.06580155  0.15967173    -0.72600
O830        O  0.72178151  0.41714692  0.16118048    -0.73600
O831        O  0.71207803  0.49312152  0.20089132    -0.62200
O832        O  0.73272214  0.99037970  0.11964907    -0.70600
O833        O  0.81409535  0.99025873  0.12680354    -0.70200
O834        O  0.79241942  0.99132381  0.20608126    -0.61400
O835        O  0.80357624  0.41684605  0.16685086    -0.73900
O836        O  0.80272913  0.06553322  0.16620196    -0.72700
Cu837      Cu  0.71923783  0.49110214  0.16013127     1.04600
Cu838      Cu  0.80514294  0.99067303  0.16658185     1.04300
C839        C  0.76181522  0.08906702  0.16311934     0.93600
C840        C  0.76246200  0.39356007  0.16400647     0.92700
C841        C  0.74886323  0.99344170  0.21590821     0.84900
C842        C  0.77733946  0.98972100  0.11064114     0.91100
O843        O  0.80239405  0.24196400  0.20417454    -0.72600
O844        O  0.79835059  0.24031921  0.12219210    -0.73600
O845        O  0.80244022  0.31528220  0.16308158    -0.62200
O846        O  0.80215322  0.16702764  0.16356494    -0.70600
O847        O  0.71971280  0.16658535  0.16392620    -0.70200
O848        O  0.72004103  0.31611356  0.16420269    -0.61400
O849        O  0.71605257  0.24135994  0.12402677    -0.73900
O850        O  0.71991254  0.24130153  0.20436362    -0.72700
Cu851      Cu  0.80431223  0.24108679  0.16320136     1.04600
Cu852      Cu  0.71611999  0.24129366  0.16418423     1.04300
C853        C  0.76112915  0.24249062  0.21695449     0.93600
C854        C  0.75594882  0.24037656  0.11033065     0.92700
C855        C  0.76160205  0.33913457  0.16379636     0.84900
C856        C  0.76118818  0.14340800  0.16357547     0.91100
O857        O  0.56886806  0.04723409  0.29850344    -0.72600
O858        O  0.92115755  0.04688221  0.29727524    -0.73600
O859        O  0.99492932  0.04275996  0.33813407    -0.62200
O860        O  0.49414710  0.04812343  0.25826735    -0.70600
O861        O  0.49752959  0.46751432  0.25740731    -0.70200
O862        O  0.49718620  0.46412587  0.33897690    -0.61400
O863        O  0.92173494  0.46441087  0.29645292    -0.73900
O864        O  0.57143732  0.46673007  0.29844421    -0.72700
Cu865      Cu  0.49438684  0.04908045  0.29864309     1.04600
Cu866      Cu  0.49724204  0.46271369  0.29814698     1.04300
C867        C  0.59272329  0.00626095  0.29831911     0.93600
C868        C  0.89723447  0.00596883  0.29692130     0.92700
C869        C  0.49576600  0.00353501  0.35177010     0.84900
C870        C  0.49460044  0.00751277  0.24510061     0.91100
O871        O  0.00672317  0.29273027  0.33972529    -0.72600
O872        O  0.00479075  0.30459414  0.25817054    -0.73600
O873        O  0.93216431  0.30102317  0.29956369    -0.62200
O874        O  0.58025554  0.30123108  0.29956207    -0.70600
O875        O  0.58130901  0.21892184  0.29708415    -0.70200
O876        O  0.93074771  0.21868653  0.29716589    -0.61400
O877        O  0.00323485  0.22226195  0.25567894    -0.73900
O878        O  0.00682523  0.21062897  0.33605945    -0.72700
Cu879      Cu  0.00612129  0.30228584  0.29906034     1.04600
Cu880      Cu  0.00525362  0.21427918  0.29583825     1.04300
C881        C  0.00635253  0.24952711  0.35063817     0.93600
C882        C  0.00344602  0.26467089  0.24423358     0.92700
C883        C  0.90812632  0.26032690  0.29882296     0.84900
C884        C  0.60418760  0.26047245  0.29812978     0.91100
O885        O  0.74539524  0.45964272  0.25994795    -0.72600
O886        O  0.74716119  0.47366746  0.34063190    -0.73600
O887        O  0.67204109  0.46725514  0.30052271    -0.62200
O888        O  0.82065683  0.46587819  0.29974831    -0.70600
O889        O  0.81947226  0.04771649  0.29566045    -0.70200
O890        O  0.67030352  0.04789416  0.29653631    -0.61400
O891        O  0.74578830  0.05542566  0.33653935    -0.73900
O892        O  0.74379357  0.04076949  0.25579742    -0.72700
Cu893      Cu  0.74623358  0.46378606  0.30040141     1.04600
Cu894      Cu  0.74478582  0.05084210  0.29597524     1.04300
C895        C  0.74416167  0.99765978  0.24512728     0.93600
C896        C  0.74597245  0.01650092  0.35126589     0.92700
C897        C  0.64707354  0.00669538  0.29838049     0.84900
C898        C  0.84280111  0.00650124  0.29737501     0.91100
O899        O  0.83022089  0.22108688  0.30305806    -0.72600
O900        O  0.68228718  0.22081364  0.30106716    -0.73600
O901        O  0.75887370  0.21048138  0.26182595    -0.62200
O902        O  0.75404130  0.23416550  0.34251316    -0.70600
O903        O  0.75455986  0.31550424  0.33532536    -0.70200
O904        O  0.75874283  0.29224798  0.25580727    -0.61400
O905        O  0.68164771  0.30248951  0.29487466    -0.73900
O906        O  0.83097729  0.30271702  0.29658045    -0.72700
Cu907      Cu  0.75633414  0.21875703  0.30241804     1.04600
Cu908      Cu  0.75645940  0.30606688  0.29539410     1.04300
C909        C  0.85393546  0.26151841  0.29963330     0.93600
C910        C  0.65855462  0.26136788  0.29792956     0.92700
C911        C  0.76017923  0.24836684  0.24625238     0.84900
C912        C  0.75333398  0.27876471  0.35152577     0.91100
O913        O  0.92405850  0.01911365  0.47679129    -0.72600
O914        O  0.57118732  0.02420568  0.47806249    -0.73600
O915        O  0.49672289  0.01323965  0.43784005    -0.62200
O916        O  0.49583319  0.03206233  0.51765885    -0.70600
O917        O  0.49935624  0.45071229  0.52362378    -0.70200
O918        O  0.50035958  0.43245186  0.44229068    -0.61400
O919        O  0.57371068  0.44200210  0.48320855    -0.73900
O920        O  0.92392103  0.43551351  0.48170579    -0.72700
Cu921      Cu  0.49619341  0.02481440  0.47762051     1.04600
Cu922      Cu  0.49993177  0.43794884  0.48317083     1.04300
C923        C  0.89967794  0.97868566  0.47936777     0.93600
C924        C  0.59530038  0.98353683  0.48064275     0.92700
C925        C  0.49800344  0.96997904  0.42737955     0.84900
C926        C  0.49709493  0.99461147  0.53336978     0.91100
O927        O  0.99602432  0.23421699  0.43825628    -0.72600
O928        O  0.99468329  0.22872292  0.52030791    -0.73600
O929        O  0.92092276  0.23209646  0.47927243    -0.62200
O930        O  0.57072013  0.23477549  0.48097827    -0.70600
O931        O  0.56978578  0.31719953  0.48172527    -0.70200
O932        O  0.92211229  0.31447351  0.48073840    -0.61400
O933        O  0.99691921  0.31110011  0.52071730    -0.73900
O934        O  0.99677672  0.31645867  0.44055919    -0.72700
Cu935      Cu  0.99509126  0.22773093  0.47927145     1.04600
Cu936      Cu  0.99683629  0.31584814  0.48066266     1.04300
C937        C  0.99710509  0.27680784  0.42664707     0.93600
C938        C  0.99563631  0.26984326  0.53328121     0.92700
C939        C  0.89809737  0.27354941  0.48029503     0.84900
C940        C  0.59366149  0.27613638  0.48139357     0.91100
O941        O  0.74738895  0.44083300  0.43956950    -0.72600
O942        O  0.74893650  0.43421453  0.51982699    -0.73600
O943        O  0.67382379  0.44059768  0.48016245    -0.62200
O944        O  0.82270615  0.43680893  0.47936266    -0.70600
O945        O  0.82250045  0.02112625  0.48072768    -0.70200
O946        O  0.67358939  0.02416394  0.48107470    -0.61400
O947        O  0.74817070  0.01811248  0.52217531    -0.73900
O948        O  0.74761884  0.02451736  0.43993101    -0.72700
Cu949      Cu  0.74814811  0.43539247  0.47966430     1.04600
Cu950      Cu  0.74807760  0.02506349  0.48107662     1.04300
C951        C  0.74666850  0.98342776  0.42691159     0.93600
C952        C  0.74764925  0.97537957  0.53367779     0.92700
C953        C  0.64965927  0.98331496  0.48055952     0.84900
C954        C  0.84529852  0.97961595  0.47979081     0.91100
O955        O  0.74532468  0.22414229  0.44406230    -0.72600
O956        O  0.74551433  0.24108436  0.52381988    -0.73600
O957        O  0.67108015  0.23457853  0.48380793    -0.62200
O958        O  0.82008917  0.23300770  0.48359756    -0.70600
O959        O  0.82049185  0.31502103  0.47901827    -0.70200
O960        O  0.67178821  0.31654723  0.47896445    -0.61400
O961        O  0.74598142  0.32305733  0.51979661    -0.73900
O962        O  0.74634148  0.30586229  0.43827482    -0.72700
Cu963      Cu  0.74548611  0.23047769  0.48403280     1.04600
Cu964      Cu  0.74618450  0.31811481  0.47882599     1.04300
C965        C  0.74616748  0.26179167  0.42850825     0.93600
C966        C  0.74527118  0.28406853  0.53459862     0.92700
C967        C  0.64802395  0.27585189  0.48142340     0.84900
C968        C  0.84371252  0.27389449  0.48102138     0.91100
O969        O  0.53715987  0.51554462  0.94143756    -0.72600
O970        O  0.52541528  0.51632925  0.02248627    -0.73600
O971        O  0.53542729  0.44172971  0.98220704    -0.62200
O972        O  0.53394433  0.08738235  0.98119676    -0.70600
O973        O  0.94700734  0.09082565  0.97676590    -0.70200
O974        O  0.94635223  0.44230863  0.97751516    -0.61400
O975        O  0.94092859  0.51740897  0.01764851    -0.73900
O976        O  0.95276349  0.51575945  0.93667734    -0.72700
Cu977      Cu  0.53456672  0.51612256  0.98208119     1.04600
Cu978      Cu  0.94390045  0.51671142  0.97702191     1.04300
C979        C  0.99578499  0.51507667  0.92582975     0.93600
C980        C  0.98020926  0.51743628  0.03215053     0.92700
C981        C  0.98737128  0.41876292  0.97935588     0.84900
C982        C  0.98798024  0.11441688  0.97854931     0.91100
O983        O  0.94623138  0.34097827  0.97719557    -0.72600
O984        O  0.94651098  0.19206741  0.97700185    -0.73600
O985        O  0.93950778  0.26619153  0.01756503    -0.62200
O986        O  0.95314834  0.26644123  0.93673838    -0.70600
O987        O  0.53620987  0.26529084  0.93922326    -0.70200
O988        O  0.54393277  0.26354675  0.01907169    -0.61400
O989        O  0.53775637  0.18939498  0.97880332    -0.73900
O990        O  0.53864118  0.33953251  0.97967717    -0.72700
Cu991      Cu  0.94346283  0.26647911  0.97697982     1.04600
Cu992      Cu  0.54195370  0.26445230  0.97910613     1.04300
C993        C  0.98727527  0.36438660  0.97933698     0.93600
C994        C  0.98769277  0.16876786  0.97878020     0.92700
C995        C  0.97848825  0.26573670  0.03228348     0.84900
C996        C  0.99631213  0.26628302  0.92605631     0.91100
O997        O  0.73790818  0.40746860  0.97816646    -0.72600
O998        O  0.73718223  0.05754031  0.97854879    -0.73600
O999        O  0.74437171  0.48334047  0.93865808    -0.62200
O1000       O  0.72621129  0.48140723  0.01802534    -0.70600
O1001       O  0.80780992  0.48248308  0.02431678    -0.70200
O1002       O  0.82636168  0.48349713  0.94273384    -0.61400
O1003       O  0.81908472  0.05635050  0.98373263    -0.73900
O1004       O  0.81979495  0.40870948  0.98338072    -0.72700
Cu1005     Cu  0.73348448  0.48223697  0.97822947     1.04600
Cu1006     Cu  0.82107413  0.48279613  0.98377032     1.04300
C1007       C  0.77936774  0.38467628  0.98073097     0.93600
C1008       C  0.77859450  0.08034683  0.98119933     0.92700
C1009       C  0.78730939  0.48407570  0.92791735     0.84900
C1010       C  0.76350103  0.48214189  0.03380234     0.91100
O1011       O  0.73971994  0.30656932  0.98126382    -0.72600
O1012       O  0.73916818  0.15869656  0.98183993    -0.73600
O1013       O  0.74367461  0.23338342  0.02271275    -0.62200
O1014       O  0.73924219  0.23234531  0.94067298    -0.70600
O1015       O  0.82163046  0.23212134  0.94047799    -0.70200
O1016       O  0.82595972  0.23263200  0.02079616    -0.61400
O1017       O  0.82157636  0.15749460  0.98090316    -0.73900
O1018       O  0.82214179  0.30723858  0.98054307    -0.72700
Cu1019     Cu  0.73750108  0.23270178  0.98169197     1.04600
Cu1020     Cu  0.82565265  0.23231575  0.98063493     1.04300
C1021       C  0.78057738  0.33031317  0.98081015     0.93600
C1022       C  0.77989659  0.13469045  0.98132961     0.92700
C1023       C  0.78611946  0.23350722  0.03453513     0.84900
C1024       C  0.78047519  0.23233741  0.92778654     0.91100
O1025       O  0.92953815  0.50760210  0.83482802    -0.72600
O1026       O  0.94538005  0.50719540  0.75418770    -0.73600
O1027       O  0.93717955  0.43302598  0.79452572    -0.62200
O1028       O  0.93577390  0.08169782  0.79439068    -0.70600
O1029       O  0.51467964  0.08067179  0.80032780    -0.70200
O1030       O  0.51619771  0.43105968  0.80047804    -0.61400
O1031       O  0.52484494  0.50517261  0.76011001    -0.73900
O1032       O  0.51035914  0.50626722  0.84054906    -0.72700
Cu1033     Cu  0.93448140  0.50740492  0.79432831     1.04600
Cu1034     Cu  0.52006847  0.50569545  0.80049355     1.04300
C1035       C  0.46734689  0.50688766  0.85132718     0.93600
C1036       C  0.48612675  0.50497021  0.74525959     0.92700
C1037       C  0.47486576  0.40808944  0.79822720     0.84900
C1038       C  0.47336424  0.10375160  0.79836677     0.91100
O1039       O  0.51376908  0.18151045  0.80107657    -0.72600
O1040       O  0.51486879  0.32987092  0.80014437    -0.73600
O1041       O  0.50549288  0.25691413  0.84085536    -0.62200
O1042       O  0.52189503  0.25442438  0.76023497    -0.70600
O1043       O  0.94230954  0.25646045  0.75483967    -0.70200
O1044       O  0.92955319  0.25818496  0.83540757    -0.61400
O1045       O  0.93662615  0.33187200  0.79477296    -0.73900
O1046       O  0.93568184  0.18294413  0.79533642    -0.72700
Cu1047     Cu  0.51683732  0.25566111  0.80076907     1.04600
Cu1048     Cu  0.93317288  0.25741242  0.79496041     1.04300
C1049       C  0.47285717  0.15808633  0.79866485     0.93600
C1050       C  0.47410791  0.35370071  0.79805055     0.92700
C1051       C  0.46216301  0.25760543  0.85140764     0.84900
C1052       C  0.48305535  0.25411048  0.74541333     0.91100
O1053       O  0.79129109  0.48862582  0.83991676    -0.72600
O1054       O  0.78854028  0.48623085  0.75880178    -0.73600
O1055       O  0.78993353  0.06279664  0.79849598    -0.62200
O1056       O  0.78841388  0.41313590  0.80005638    -0.70600
O1057       O  0.70596817  0.41407598  0.80049270    -0.70200
O1058       O  0.70751203  0.06185747  0.79881510    -0.61400
O1059       O  0.70605844  0.48663896  0.75907033    -0.73900
O1060       O  0.70889222  0.48953329  0.84028151    -0.72700
Cu1061     Cu  0.79239953  0.48758812  0.79932558     1.04600
Cu1062     Cu  0.70417871  0.48825149  0.79971972     1.04300
C1063       C  0.75037953  0.48910921  0.85287644     0.93600
C1064       C  0.74713268  0.48589500  0.74623477     0.92700
C1065       C  0.74835430  0.08577591  0.79849023     0.84900
C1066       C  0.74686352  0.39021993  0.80040195     0.91100
O1067       O  0.70322864  0.23635622  0.83944283    -0.72600
O1068       O  0.70479707  0.23979266  0.75870340    -0.73600
O1069       O  0.70576999  0.16320183  0.79834125    -0.62200
O1070       O  0.70476341  0.31266749  0.79990603    -0.70600
O1071       O  0.78720891  0.31234406  0.80049900    -0.70200
O1072       O  0.78819293  0.16414572  0.79870572    -0.61400
O1073       O  0.78727121  0.24041851  0.75874286    -0.73900
O1074       O  0.78559175  0.23641886  0.84041583    -0.72700
Cu1075     Cu  0.70177248  0.23796662  0.79907050     1.04600
Cu1076     Cu  0.78997805  0.23833654  0.79961173     1.04300
C1077       C  0.74380092  0.23579824  0.85272308     0.93600
C1078       C  0.74588858  0.24094545  0.74601609     0.92700
C1079       C  0.74735726  0.14022861  0.79841616     0.84900
C1080       C  0.74615674  0.33589750  0.80036322     0.91100
O1081       O  0.49123144  0.03959237  0.70105397    -0.72600
O1082       O  0.49700382  0.02041289  0.61999194    -0.73600
O1083       O  0.92123981  0.02915393  0.65795804    -0.62200
O1084       O  0.56878689  0.03242203  0.66196042    -0.70600
O1085       O  0.57110846  0.45003507  0.66674919    -0.70200
O1086       O  0.92126850  0.44786267  0.66481174    -0.61400
O1087       O  0.49831881  0.43835669  0.62604928    -0.73900
O1088       O  0.49396443  0.45705658  0.70590003    -0.72700
Cu1089     Cu  0.49447700  0.03361424  0.66035155     1.04600
Cu1090     Cu  0.49643622  0.44551766  0.66610673     1.04300
C1091       C  0.49143021  0.50043099  0.71603870     0.93600
C1092       C  0.49850406  0.47585094  0.61034883     0.92700
C1093       C  0.89839860  0.48918957  0.66191159     0.84900
C1094       C  0.59391117  0.49145893  0.66432357     0.91100
O1095       O  0.91726509  0.28528632  0.65957672    -0.72600
O1096       O  0.56574139  0.28668361  0.66279072    -0.73600
O1097       O  0.49325490  0.28093667  0.62112207    -0.62200
O1098       O  0.99003828  0.29112103  0.70052580    -0.70600
O1099       O  0.99000167  0.20881057  0.70382520    -0.70200
O1100       O  0.99246779  0.19641900  0.62306451    -0.61400
O1101       O  0.56601926  0.20437436  0.66535364    -0.73900
O1102       O  0.91693664  0.20303415  0.66284350    -0.72700
Cu1103     Cu  0.49127815  0.28906790  0.66151090     1.04600
Cu1104     Cu  0.99138088  0.19987833  0.66361052     1.04300
C1105       C  0.89371304  0.24430322  0.66128675     0.93600
C1106       C  0.58932388  0.24563212  0.66426318     0.92700
C1107       C  0.99292314  0.23570787  0.60863953     0.84900
C1108       C  0.98907680  0.25164760  0.71479326     0.91100
O1109       O  0.67192014  0.45145374  0.66254567    -0.72600
O1110       O  0.81996951  0.44992234  0.66189714    -0.73600
O1111       O  0.74639952  0.44711282  0.70300070    -0.62200
O1112       O  0.74571698  0.45762704  0.62124430    -0.70600
O1113       O  0.74390987  0.04044298  0.62471752    -0.70200
O1114       O  0.74747006  0.02931122  0.70500653    -0.61400
O1115       O  0.82039070  0.03214295  0.66360910    -0.73900
O1116       O  0.67064974  0.03406120  0.66568543    -0.72700
Cu1117     Cu  0.74594329  0.44861055  0.66205213     1.04600
Cu1118     Cu  0.74562936  0.03682343  0.66490273     1.04300
C1119       C  0.64834136  0.49237292  0.66411852     0.93600
C1120       C  0.84407327  0.49057360  0.66268190     0.92700
C1121       C  0.74689482  0.48731195  0.71673606     0.84900
C1122       C  0.74599471  0.50075245  0.61021087     0.91100
O1123       O  0.66731383  0.28692662  0.66445222    -0.72600
O1124       O  0.81631695  0.28613534  0.66254848    -0.73600
O1125       O  0.74036456  0.28898364  0.62287628    -0.62200
O1126       O  0.74416416  0.28440653  0.70431604    -0.70600
O1127       O  0.74381214  0.20195043  0.70327183    -0.70200
O1128       O  0.73966274  0.20658604  0.62231815    -0.61400
O1129       O  0.81575701  0.20368917  0.66176934    -0.73900
O1130       O  0.66714262  0.20450288  0.66379491    -0.72700
Cu1131     Cu  0.74198202  0.28955871  0.66362821     1.04600
Cu1132     Cu  0.74151105  0.20135473  0.66274257     1.04300
C1133       C  0.64377929  0.24573863  0.66428761     0.93600
C1134       C  0.83941027  0.24473355  0.66180833     0.92700
C1135       C  0.73995636  0.24810096  0.60981254     0.84900
C1136       C  0.74500003  0.24254768  0.71649629     0.91100
C1137       C  0.78213281  0.23288205  0.89799874    -0.16100
C1138       C  0.74131459  0.23448880  0.88251783    -0.31300
H1139       H  0.81852860  0.23242118  0.88852843     0.12900
H1140       H  0.70486975  0.23497201  0.89191468     0.13500
C1141       C  0.79110517  0.48573740  0.89811112    -0.16100
C1142       C  0.74991484  0.48868418  0.88264069    -0.31300
H1143       H  0.82762144  0.48441872  0.88884994     0.12900
H1144       H  0.71508237  0.99004707  0.89193041     0.13500
C1145       C  0.00199260  0.26476250  0.89645314    -0.16100
C1146       C  0.45656839  0.25958643  0.88109810    -0.31300
H1147       H  0.53314454  0.26623551  0.88810107     0.12900
H1148       H  0.92552998  0.25940120  0.88785591     0.13500
C1149       C  0.50224733  0.51172281  0.89738198    -0.16100
C1150       C  0.46246838  0.50840270  0.88098989    -0.31300
H1151       H  0.53935509  0.51308947  0.88885135     0.12900
H1152       H  0.92428258  0.00918966  0.88756961     0.13500
C1153       C  0.74389341  0.28825946  0.56441617    -0.16100
C1154       C  0.74034107  0.24739180  0.58002867    -0.31300
H1155       H  0.74574243  0.32484897  0.57355182     0.12900
H1156       H  0.73847981  0.21103836  0.57060105     0.13500
C1157       C  0.74704329  0.96974868  0.56337245    -0.16100
C1158       C  0.74677175  0.50689896  0.58052645    -0.31300
H1159       H  0.74996108  0.43076609  0.57175287     0.12900
H1160       H  0.74264885  0.04575057  0.57244430     0.13500
C1161       C  0.99513192  0.27157569  0.56301640    -0.16100
C1162       C  0.99366038  0.23122233  0.57888970    -0.31300
H1163       H  0.49418097  0.31147407  0.57340634     0.12900
H1164       H  0.99299948  0.19436646  0.56995780     0.13500
C1165       C  0.49937623  0.46679588  0.58094000    -0.16100
C1166       C  0.49694783  0.00378140  0.56277257    -0.31300
H1167       H  0.50069011  0.42854268  0.57410020     0.12900
H1168       H  0.99907466  0.03626417  0.56795774     0.13500
C1169       C  0.75103479  0.28903005  0.38080108    -0.16100
C1170       C  0.74741500  0.25263406  0.39914666    -0.31300
H1171       H  0.75231294  0.32746064  0.38735188     0.12900
H1172       H  0.74610960  0.21426740  0.39248672     0.13500
C1173       C  0.74654308  0.02164545  0.38103085    -0.16100
C1174       C  0.74618649  0.98156510  0.39714503    -0.31300
H1175       H  0.74909755  0.55809682  0.39034845     0.12900
H1176       H  0.74546254  0.94475130  0.38810646     0.13500
C1177       C  0.00464463  0.24335151  0.38027725    -0.16100
C1178       C  0.99915562  0.28198128  0.39699387    -0.31300
H1179       H  0.00698293  0.20598976  0.38846086     0.12900
H1180       H  0.49657312  0.32129181  0.38960421     0.13500
C1181       C  0.49794162  0.96484302  0.39759339    -0.16100
C1182       C  0.49644605  0.00521554  0.38154317    -0.31300
H1183       H  0.49887812  0.92791036  0.38883850     0.12900
H1184       H  0.99744521  0.53741278  0.38973535     0.13500
C1185       C  0.75143168  0.23898177  0.08060385    -0.16100
C1186       C  0.79072487  0.23495675  0.06426186    -0.31300
H1187       H  0.71438141  0.24080215  0.07196703     0.12900
H1188       H  0.82779151  0.23316455  0.07288613     0.13500
C1189       C  0.78792784  0.98807651  0.08144983    -0.16100
C1190       C  0.75356501  0.48306781  0.06307923    -0.31300
H1191       H  0.82791891  0.49015142  0.07524163     0.12900
H1192       H  0.71348914  0.98263858  0.06925020     0.13500
C1193       C  0.01306161  0.26333504  0.07837965    -0.16100
C1194       C  0.97327549  0.26498809  0.06198531    -0.31300
H1195       H  0.05006595  0.26239655  0.06975401     0.12900
H1196       H  0.54890777  0.26310518  0.07062486     0.13500
C1197       C  0.97556564  0.51768398  0.06185908    -0.16100
C1198       C  0.01550444  0.51773267  0.07819797    -0.31300
H1199       H  0.43691507  0.01676676  0.07104154     0.12900
H1200       H  0.05256797  0.51788571  0.06954643     0.13500
O1201       O  0.96571544  0.58953864  0.16084561    -0.72600
O1202       O  0.96614751  0.94013599  0.15872583    -0.73600
O1203       O  0.96047172  0.01182456  0.20030035    -0.62200
O1204       O  0.96992877  0.01661785  0.11925666    -0.70600
O1205       O  0.54770972  0.01820288  0.12364937    -0.70200
O1206       O  0.54113683  0.50944278  0.20418144    -0.61400
O1207       O  0.54713206  0.94137296  0.16279552    -0.73900
O1208       O  0.54923567  0.58668375  0.16494235    -0.72700
Cu1209     Cu  0.96243570  0.01443083  0.15967483     1.04600
Cu1210     Cu  0.54812870  0.51171853  0.16396782     1.04300
C1211       C  0.50899161  0.61173594  0.16349022     0.93600
C1212       C  0.50700825  0.91632440  0.16105715     0.92700
C1213       C  0.49887555  0.51093394  0.21569056     0.84900
C1214       C  0.01251909  0.01734300  0.10792678     0.91100
O1215       O  0.96648429  0.69079578  0.16108233    -0.72600
O1216       O  0.96678440  0.83931075  0.15946714    -0.73600
O1217       O  0.96996121  0.76392793  0.11964913    -0.62200
O1218       O  0.96428638  0.76673875  0.20105555    -0.70600
O1219       O  0.54871565  0.76631353  0.20352004    -0.70200
O1220       O  0.55323928  0.76292264  0.12255589    -0.61400
O1221       O  0.55021757  0.83924302  0.16208454    -0.73900
O1222       O  0.55142662  0.68955183  0.16400166    -0.72700
Cu1223     Cu  0.96396808  0.76518819  0.16025539     1.04600
Cu1224     Cu  0.55384210  0.76453843  0.16308824     1.04300
C1225       C  0.00750933  0.66714281  0.16223112     0.93600
C1226       C  0.00790180  0.86277125  0.16012049     0.92700
C1227       C  0.01225578  0.76354203  0.10795375     0.84900
C1228       C  0.00483782  0.76738867  0.21450752     0.91100
O1229       O  0.72051073  0.56505063  0.15970172    -0.72600
O1230       O  0.71833601  0.91775972  0.16065560    -0.73600
O1231       O  0.71053379  0.99348044  0.20059624    -0.62200
O1232       O  0.73422654  0.48945327  0.11986824    -0.70600
O1233       O  0.81558412  0.49100273  0.12698313    -0.70200
O1234       O  0.79399940  0.49299982  0.20630553    -0.61400
O1235       O  0.80013358  0.91599041  0.16629068    -0.73900
O1236       O  0.80213164  0.56663322  0.16609727    -0.72700
Cu1237     Cu  0.71774939  0.99186519  0.15986581     1.04600
Cu1238     Cu  0.80663750  0.49184754  0.16679166     1.04300
C1239       C  0.76064832  0.58922680  0.16309981     0.93600
C1240       C  0.75861485  0.89346866  0.16342243     0.92700
C1241       C  0.75044068  0.49437945  0.21616942     0.84900
C1242       C  0.77883963  0.48952661  0.11082805     0.91100
O1243       O  0.79967405  0.74299590  0.20366146    -0.72600
O1244       O  0.79386561  0.74016179  0.12190235    -0.73600
O1245       O  0.79812917  0.81536422  0.16235002    -0.62200
O1246       O  0.79949850  0.66770417  0.16337346    -0.70600
O1247       O  0.71708025  0.66612137  0.16414030    -0.70200
O1248       O  0.71574281  0.81602107  0.16386691    -0.61400
O1249       O  0.71157593  0.74047578  0.12400948    -0.73900
O1250       O  0.71720349  0.74164651  0.20435207    -0.72700
Cu1251     Cu  0.80070011  0.74152775  0.16275245     1.04600
Cu1252     Cu  0.71251489  0.74098173  0.16417464     1.04300
C1253       C  0.75868282  0.74340824  0.21667782     0.93600
C1254       C  0.75133953  0.73968178  0.11019580     0.92700
C1255       C  0.75728114  0.83910557  0.16320041     0.84900
C1256       C  0.75890920  0.64352904  0.16358265     0.91100
O1257       O  0.57051288  0.54917909  0.29860160    -0.72600
O1258       O  0.92286998  0.54681168  0.29761697    -0.73600
O1259       O  0.99704474  0.54219105  0.33823098    -0.62200
O1260       O  0.49569450  0.54997803  0.25824467    -0.70600
O1261       O  0.49494522  0.96565124  0.25732118    -0.70200
O1262       O  0.49599801  0.96231718  0.33897750    -0.61400
O1263       O  0.92018721  0.96446878  0.29635833    -0.73900
O1264       O  0.56976986  0.96478856  0.29808218    -0.72700
Cu1265     Cu  0.49589955  0.55092850  0.29864947     1.04600
Cu1266     Cu  0.49543767  0.96086363  0.29811237     1.04300
C1267       C  0.59437947  0.50818761  0.29859165     0.93600
C1268       C  0.89886812  0.50595517  0.29718162     0.92700
C1269       C  0.49695286  0.50531488  0.35178760     0.84900
C1270       C  0.49678497  0.50930988  0.24513620     0.91100
O1271       O  0.00591284  0.79373872  0.33961227    -0.72600
O1272       O  0.00472933  0.80566198  0.25790835    -0.73600
O1273       O  0.93152329  0.80216801  0.29914306    -0.62200
O1274       O  0.57932953  0.80128276  0.29947042    -0.70600
O1275       O  0.58041853  0.71900596  0.29675699    -0.70200
O1276       O  0.93020837  0.71984954  0.29663104    -0.61400
O1277       O  0.00332916  0.72331952  0.25548234    -0.73900
O1278       O  0.00592743  0.71167196  0.33576183    -0.72700
Cu1279     Cu  0.00555708  0.80344711  0.29886360     1.04600
Cu1280     Cu  0.00475788  0.71544827  0.29558535     1.04300
C1281       C  0.00560135  0.75043263  0.35043493     0.93600
C1282       C  0.00377890  0.76566493  0.24400236     0.92700
C1283       C  0.90751154  0.76145779  0.29826565     0.84900
C1284       C  0.60330105  0.76056390  0.29799808     0.91100
O1285       O  0.74424481  0.95856149  0.25971046    -0.72600
O1286       O  0.74563317  0.97337719  0.34043911    -0.73600
O1287       O  0.67064412  0.96571229  0.30024354    -0.62200
O1288       O  0.81924815  0.96558648  0.29960186    -0.70600
O1289       O  0.82135253  0.54805724  0.29614904    -0.70200
O1290       O  0.67222048  0.54944856  0.29689709    -0.61400
O1291       O  0.74765142  0.55575983  0.33705533    -0.73900
O1292       O  0.74584303  0.54185846  0.25612694    -0.72700
Cu1293     Cu  0.74488381  0.96295862  0.30019702     1.04600
Cu1294     Cu  0.74673829  0.55169830  0.29640763     1.04300
C1295       C  0.74575063  0.49875937  0.24540136     0.93600
C1296       C  0.74766061  0.51661655  0.35163235     0.92700
C1297       C  0.64873050  0.50840223  0.29870310     0.84900
C1298       C  0.84444282  0.50669269  0.29768644     0.91100
O1299       O  0.82966971  0.72199500  0.30235923    -0.72600
O1300       O  0.68160184  0.72113110  0.30099128    -0.73600
O1301       O  0.75755075  0.71140818  0.26148604    -0.62200
O1302       O  0.75411767  0.73429004  0.34215945    -0.70600
O1303       O  0.75424713  0.81570888  0.33524582    -0.70200
O1304       O  0.75718180  0.79320682  0.25557437    -0.61400
O1305       O  0.68068359  0.80284208  0.29497850    -0.73900
O1306       O  0.83015290  0.80367684  0.29610589    -0.72700
Cu1307     Cu  0.75573582  0.71935119  0.30204370     1.04600
Cu1308     Cu  0.75552956  0.80671292  0.29523427     1.04300
C1309       C  0.85326950  0.76252484  0.29901769     0.93600
C1310       C  0.65771137  0.76161387  0.29792169     0.92700
C1311       C  0.75839868  0.74934930  0.24596093     0.84900
C1312       C  0.75350559  0.77876420  0.35133053     0.91100
O1313       O  0.92527942  0.51746008  0.47683103    -0.72600
O1314       O  0.57312669  0.52394778  0.47826727    -0.73600
O1315       O  0.49864952  0.51436010  0.43789564    -0.62200
O1316       O  0.49761885  0.53239007  0.51775170    -0.70600
O1317       O  0.49842638  0.95046123  0.52374783    -0.70200
O1318       O  0.49915634  0.93139759  0.44247070    -0.61400
O1319       O  0.57259765  0.94230878  0.48320342    -0.73900
O1320       O  0.92212932  0.93716892  0.48162308    -0.72700
Cu1321     Cu  0.49810563  0.52552000  0.47770354     1.04600
Cu1322     Cu  0.49886107  0.93731880  0.48333071     1.04300
C1323       C  0.90118553  0.47687156  0.47944034     0.93600
C1324       C  0.59683271  0.48301650  0.48080019     0.92700
C1325       C  0.49950792  0.47119448  0.42731272     0.84900
C1326       C  0.49837792  0.49478600  0.53336081     0.91100
O1327       O  0.99791575  0.73351520  0.43813154    -0.72600
O1328       O  0.99710072  0.72652243  0.52029181    -0.73600
O1329       O  0.92304453  0.73012210  0.47927532    -0.62200
O1330       O  0.57244558  0.73458950  0.48082290    -0.70600
O1331       O  0.57203892  0.81702146  0.48135573    -0.70200
O1332       O  0.92399080  0.81248790  0.48099571    -0.61400
O1333       O  0.99877937  0.80890289  0.52095442    -0.73900
O1334       O  0.99854634  0.81571082  0.44087253    -0.72700
Cu1335     Cu  0.99729252  0.72621649  0.47917961     1.04600
Cu1336     Cu  0.99864373  0.81431469  0.48095551     1.04300
C1337       C  0.99874657  0.77633335  0.42673739     0.93600
C1338       C  0.99786080  0.76752083  0.53339598     0.92700
C1339       C  0.90009635  0.77150420  0.48038288     0.84900
C1340       C  0.59565499  0.77579060  0.48113262     0.91100
O1341       O  0.74612048  0.94213689  0.43946267    -0.72600
O1342       O  0.74746554  0.93589157  0.51962038    -0.73600
O1343       O  0.67254169  0.94175482  0.47996117    -0.62200
O1344       O  0.82125973  0.93874574  0.47925776    -0.70600
O1345       O  0.82409959  0.51918070  0.48091255    -0.70200
O1346       O  0.67539014  0.52298797  0.48142318    -0.61400
O1347       O  0.75010007  0.51641803  0.52239319    -0.73900
O1348       O  0.74920391  0.52320100  0.44025466    -0.72700
Cu1349     Cu  0.74680267  0.93695569  0.47951001     1.04600
Cu1350     Cu  0.74981622  0.52348238  0.48135223     1.04300
C1351       C  0.74806991  0.48225299  0.42712475     0.93600
C1352       C  0.74944566  0.47370246  0.53389289     0.92700
C1353       C  0.65119880  0.48231092  0.48081362     0.84900
C1354       C  0.84681590  0.47764590  0.47991521     0.91100
O1355       O  0.74715289  0.72290947  0.44377326    -0.72600
O1356       O  0.74723494  0.73961236  0.52365781    -0.73600
O1357       O  0.67281557  0.73367645  0.48352115    -0.62200
O1358       O  0.82191730  0.73105523  0.48346290    -0.70600
O1359       O  0.82265181  0.81307792  0.47893182    -0.70200
O1360       O  0.67405112  0.81565860  0.47877874    -0.61400
O1361       O  0.74822702  0.82159215  0.51960625    -0.73900
O1362       O  0.74851498  0.80466189  0.43815333    -0.72700
Cu1363     Cu  0.74724109  0.72905130  0.48380941     1.04600
Cu1364     Cu  0.74842259  0.81670398  0.47868077     1.04300
C1365       C  0.74810087  0.76067998  0.42829208     0.93600
C1366       C  0.74729682  0.78263256  0.53441868     0.92700
C1367       C  0.65002232  0.77511501  0.48117540     0.84900
C1368       C  0.84570732  0.77186683  0.48097102     0.91100
O1369       O  0.53560383  0.01144923  0.94151034    -0.72600
O1370       O  0.52328221  0.01503920  0.02251745    -0.73600
O1371       O  0.52677993  0.93919604  0.98275553    -0.62200
O1372       O  0.52871263  0.59017590  0.98166465    -0.70600
O1373       O  0.94711380  0.59112465  0.97679006    -0.70200
O1374       O  0.94770302  0.94209255  0.97754122    -0.61400
O1375       O  0.94203006  0.01714868  0.01766629    -0.73900
O1376       O  0.95292733  0.01552453  0.93666798    -0.72700
Cu1377     Cu  0.53276457  0.01313778  0.98213871     1.04600
Cu1378     Cu  0.94454491  0.01642127  0.97703691     1.04300
C1379       C  0.99582161  0.01519064  0.92567488     0.93600
C1380       C  0.98140603  0.01748564  0.03209044     0.92700
C1381       C  0.98887567  0.91878537  0.97924509     0.84900
C1382       C  0.98827044  0.61439359  0.97866074     0.91100
O1383       O  0.94781228  0.84104782  0.97730625    -0.72600
O1384       O  0.94733809  0.69227888  0.97724767    -0.73600
O1385       O  0.94162901  0.76650718  0.01774750    -0.62200
O1386       O  0.95353697  0.76642339  0.93689381    -0.70600
O1387       O  0.53129977  0.76536076  0.94168630    -0.70200
O1388       O  0.52140439  0.76399498  0.02229690    -0.61400
O1389       O  0.52672436  0.69059330  0.98163545    -0.73900
O1390       O  0.52559405  0.83901067  0.98232803    -0.72700
Cu1391     Cu  0.94470735  0.76664004  0.97717295     1.04600
Cu1392     Cu  0.52905451  0.76481152  0.98209352     1.04300
C1393       C  0.98891632  0.86440102  0.97921759     0.93600
C1394       C  0.98840060  0.66875293  0.97885195     0.92700
C1395       C  0.98087209  0.76597502  0.03225577     0.84900
C1396       C  0.99650696  0.76605758  0.92599810     0.91100
O1397       O  0.73660870  0.90785295  0.97813639    -0.72600
O1398       O  0.73650644  0.55708360  0.97890148    -0.73600
O1399       O  0.74492954  0.98336223  0.93847886    -0.62200
O1400       O  0.72514391  0.98237736  0.01774621    -0.70600
O1401       O  0.80666608  0.98268517  0.02437719    -0.70200
O1402       O  0.82683903  0.98263528  0.94297968    -0.61400
O1403       O  0.81848374  0.55670041  0.98374798    -0.73900
O1404       O  0.81840455  0.90837611  0.98378825    -0.72700
Cu1405     Cu  0.73319100  0.98273073  0.97799602     1.04600
Cu1406     Cu  0.82069028  0.98241320  0.98396197     1.04300
C1407       C  0.77780426  0.88469194  0.98096990     0.93600
C1408       C  0.77771904  0.58029696  0.98138331     0.92700
C1409       C  0.78806939  0.98354315  0.92795782     0.84900
C1410       C  0.76222691  0.98291655  0.03366833     0.91100
O1411       O  0.73781552  0.80658061  0.98113053    -0.72600
O1412       O  0.73770140  0.65845820  0.98158858    -0.73600
O1413       O  0.74046949  0.73306086  0.02248136    -0.62200
O1414       O  0.73884645  0.73233881  0.94047693    -0.70600
O1415       O  0.82123437  0.73235276  0.94098931    -0.70200
O1416       O  0.82282547  0.73253607  0.02127024    -0.61400
O1417       O  0.82013620  0.65765975  0.98134412    -0.73900
O1418       O  0.82025230  0.80720544  0.98114118    -0.72700
Cu1419     Cu  0.73573169  0.73255885  0.98145136     1.04600
Cu1420     Cu  0.82391658  0.73239684  0.98116928     1.04300
C1421       C  0.77871501  0.83030911  0.98106641     0.93600
C1422       C  0.77857785  0.63465079  0.98145925     0.92700
C1423       C  0.78256849  0.73319469  0.03464500     0.84900
C1424       C  0.78045248  0.73248267  0.92794852     0.91100
O1425       O  0.92847555  0.00777704  0.83485865    -0.72600
O1426       O  0.94343484  0.00684939  0.75410257    -0.73600
O1427       O  0.93566818  0.93288183  0.79462276    -0.62200
O1428       O  0.93722434  0.58164725  0.79452243    -0.70600
O1429       O  0.51739479  0.58029652  0.80020915    -0.70200
O1430       O  0.51582275  0.93167834  0.80037912    -0.61400
O1431       O  0.52318390  0.00607496  0.76011541    -0.73900
O1432       O  0.50878158  0.00643319  0.84053426    -0.72700
Cu1433     Cu  0.93295590  0.00734477  0.79431272     1.04600
Cu1434     Cu  0.51846213  0.00625933  0.80049207     1.04300
C1435       C  0.46577799  0.00664573  0.85132346     0.93600
C1436       C  0.48446569  0.00539283  0.74527196     0.92700
C1437       C  0.47483165  0.90814235  0.79817809     0.84900
C1438       C  0.47627851  0.60374636  0.79825223     0.91100
O1439       O  0.51673816  0.68173760  0.80095980    -0.72600
O1440       O  0.51598615  0.83044391  0.80020923    -0.73600
O1441       O  0.50799950  0.75706779  0.84089234    -0.62200
O1442       O  0.52413370  0.75522798  0.76021190    -0.70600
O1443       O  0.94307826  0.75605069  0.75477939    -0.70200
O1444       O  0.92912064  0.75780308  0.83539787    -0.61400
O1445       O  0.93577696  0.83149937  0.79470655    -0.73900
O1446       O  0.93657527  0.68262618  0.79537363    -0.72700
Cu1447     Cu  0.51907782  0.75613222  0.80075219     1.04600
Cu1448     Cu  0.93324702  0.75700980  0.79491814     1.04300
C1449       C  0.47592250  0.65810491  0.79850555     0.93600
C1450       C  0.47490880  0.85375510  0.79800499     0.92700
C1451       C  0.46456129  0.75736228  0.85126815     0.84900
C1452       C  0.48537698  0.75461796  0.74533030     0.91100
O1453       O  0.79302039  0.98891837  0.83979066    -0.72600
O1454       O  0.78955623  0.98661300  0.75853175    -0.73600
O1455       O  0.78968255  0.56236275  0.79864055    -0.62200
O1456       O  0.79104190  0.91345547  0.79986015    -0.70600
O1457       O  0.70858970  0.91364756  0.80054794    -0.70200
O1458       O  0.70725303  0.56253418  0.79886591    -0.61400
O1459       O  0.70709049  0.98581207  0.75909071    -0.73900
O1460       O  0.71061515  0.98902291  0.84020362    -0.72700
Cu1461     Cu  0.79385195  0.98800809  0.79912628     1.04600
Cu1462     Cu  0.70563408  0.98759820  0.79970957     1.04300
C1463       C  0.75211169  0.98893726  0.85277348     0.93600
C1464       C  0.74798962  0.98558719  0.74610236     0.92700
C1465       C  0.74843417  0.58589750  0.79854969     0.84900
C1466       C  0.74969626  0.89018821  0.80036346     0.91100
O1467       O  0.70494743  0.73668586  0.83926792    -0.72600
O1468       O  0.70725487  0.74052646  0.75858829    -0.73600
O1469       O  0.70689875  0.66379770  0.79813978    -0.62200
O1470       O  0.70763678  0.81291326  0.79985929    -0.70600
O1471       O  0.79008776  0.81218891  0.80060263    -0.70200
O1472       O  0.78932502  0.66379788  0.79878951    -0.61400
O1473       O  0.78973017  0.74029258  0.75881365    -0.73900
O1474       O  0.78730270  0.73615090  0.84052355    -0.72700
Cu1475     Cu  0.70385445  0.73847672  0.79892746     1.04600
Cu1476     Cu  0.79206245  0.73806392  0.79970999     1.04300
C1477       C  0.74535779  0.73582102  0.85268207     0.93600
C1478       C  0.74844622  0.74138176  0.74599438     0.92700
C1479       C  0.74819438  0.64035274  0.79838816     0.84900
C1480       C  0.74912698  0.83591812  0.80037817     0.91100
O1481       O  0.49260475  0.53907286  0.70102102    -0.72600
O1482       O  0.49774569  0.52000238  0.61997401    -0.73600
O1483       O  0.92231515  0.52949450  0.65844723    -0.62200
O1484       O  0.56983634  0.53195947  0.66172844    -0.70600
O1485       O  0.56996944  0.95051322  0.66706174    -0.70200
O1486       O  0.92001700  0.94748200  0.66416728    -0.61400
O1487       O  0.49762995  0.93878475  0.62613664    -0.73900
O1488       O  0.49237992  0.95756870  0.70591972    -0.72700
Cu1489     Cu  0.49553027  0.53311471  0.66032296     1.04600
Cu1490     Cu  0.49530970  0.94602157  0.66616616     1.04300
C1491       C  0.48985093  0.00093365  0.71605832     0.93600
C1492       C  0.49786647  0.97622856  0.61040530     0.92700
C1493       C  0.89723860  0.98886103  0.66124931     0.84900
C1494       C  0.59281835  0.99191864  0.66466451     0.91100
O1495       O  0.91986268  0.78424890  0.65939588    -0.72600
O1496       O  0.56838690  0.78804356  0.66277566    -0.73600
O1497       O  0.49569505  0.78269126  0.62106330    -0.62200
O1498       O  0.99203798  0.79061298  0.70054246    -0.70600
O1499       O  0.99188741  0.70834977  0.70414994    -0.70200
O1500       O  0.99528830  0.69466118  0.62344190    -0.61400
O1501       O  0.56851982  0.70572459  0.66523235    -0.73900
O1502       O  0.91933905  0.70203911  0.66298379    -0.72700
Cu1503     Cu  0.49381174  0.79043466  0.66152330     1.04600
Cu1504     Cu  0.99380758  0.69879741  0.66397637     1.04300
C1505       C  0.89622170  0.74334707  0.66122460     0.93600
C1506       C  0.59189880  0.74692846  0.66421870     0.92700
C1507       C  0.99581588  0.73374528  0.60885477     0.84900
C1508       C  0.99067861  0.75132166  0.71495374     0.91100
O1509       O  0.67073469  0.95181798  0.66270946    -0.72600
O1510       O  0.81870102  0.94983814  0.66118300    -0.73600
O1511       O  0.74610224  0.94695373  0.70277135    -0.62200
O1512       O  0.74366774  0.95836965  0.62097017    -0.70600
O1513       O  0.74581358  0.53974644  0.62471036    -0.70200
O1514       O  0.74738189  0.52949702  0.70508351    -0.61400
O1515       O  0.82138475  0.53224811  0.66414768    -0.73900
O1516       O  0.67163227  0.53373108  0.66525333    -0.72700
Cu1517     Cu  0.74471832  0.94881645  0.66177815     1.04600
Cu1518     Cu  0.74657591  0.53665206  0.66493661     1.04300
C1519       C  0.64725602  0.99276091  0.66447510     0.93600
C1520       C  0.84293000  0.99040329  0.66198744     0.92700
C1521       C  0.74719483  0.98706822  0.71658787     0.84900
C1522       C  0.74378264  0.00163607  0.61008145     0.91100
O1523       O  0.67017804  0.78775704  0.66435817    -0.72600
O1524       O  0.81911067  0.78557378  0.66233017    -0.73600
O1525       O  0.74308041  0.78853685  0.62268383    -0.62200
O1526       O  0.74714670  0.78478836  0.70421534    -0.70600
O1527       O  0.74620581  0.70233350  0.70331136    -0.70200
O1528       O  0.74182973  0.70614244  0.62241004    -0.61400
O1529       O  0.81803941  0.70312310  0.66178873    -0.73900
O1530       O  0.66943593  0.70533197  0.66390992    -0.72700
Cu1531     Cu  0.74485887  0.78962489  0.66346774     1.04600
Cu1532     Cu  0.74376980  0.70142038  0.66282063     1.04300
C1533       C  0.64635763  0.74674376  0.66428571     0.93600
C1534       C  0.84193886  0.74402335  0.66170545     0.92700
C1535       C  0.74232081  0.74749086  0.60975956     0.84900
C1536       C  0.74771650  0.74297725  0.71646851     0.91100
C1537       C  0.78290127  0.73307342  0.89818004    -0.16100
C1538       C  0.74240943  0.73450428  0.88245223    -0.31300
H1539       H  0.81951485  0.73277054  0.88895161     0.12900
H1540       H  0.70577535  0.73488146  0.89164009     0.13500
C1541       C  0.79241547  0.98505477  0.89816173    -0.16100
C1542       C  0.75147375  0.98840940  0.88253397    -0.31300
H1543       H  0.82903118  0.98338039  0.88905665     0.12900
H1544       H  0.71360798  0.49007636  0.89216072     0.13500
C1545       C  0.00170687  0.76449815  0.89639220    -0.16100
C1546       C  0.45828631  0.75920975  0.88084967    -0.31300
H1547       H  0.53463334  0.76492462  0.88949948     0.12900
H1548       H  0.92512127  0.75921225  0.88799575     0.13500
C1549       C  0.50077933  0.01005898  0.89738889    -0.16100
C1550       C  0.46093676  0.00820009  0.88097876    -0.31300
H1551       H  0.53794757  0.00975159  0.88889168     0.12900
H1552       H  0.92470249  0.50885541  0.88749963     0.13500
C1553       C  0.74607914  0.78703296  0.56422658    -0.16100
C1554       C  0.74250554  0.74636630  0.57997285    -0.31300
H1555       H  0.74811455  0.82369297  0.57325473     0.12900
H1556       H  0.74046024  0.70992567  0.57066715     0.13500
C1557       C  0.74899059  0.46823575  0.56359875    -0.16100
C1558       C  0.74417639  0.00818364  0.58041122    -0.31300
H1559       H  0.74856652  0.93224005  0.57143387     0.12900
H1560       H  0.74576188  0.54440748  0.57243870     0.13500
C1561       C  0.99755330  0.76915230  0.56314155    -0.16100
C1562       C  0.99657346  0.72890035  0.57910166    -0.31300
H1563       H  0.49601129  0.81316541  0.57309659     0.12900
H1564       H  0.99617785  0.69196996  0.57025676     0.13500
C1565       C  0.49884633  0.96703026  0.58100965    -0.16100
C1566       C  0.49808013  0.50370397  0.56278130    -0.31300
H1567       H  0.50057062  0.92874824  0.57424357     0.12900
H1568       H  0.00057835  0.53600229  0.56791020     0.13500
C1569       C  0.75187311  0.78857994  0.38066583    -0.16100
C1570       C  0.74906598  0.75187296  0.39889089    -0.31300
H1571       H  0.75290819  0.82693169  0.38736436     0.12900
H1572       H  0.74796197  0.71358291  0.39209145     0.13500
C1573       C  0.74820920  0.52121543  0.38142842    -0.16100
C1574       C  0.74754441  0.48083303  0.39734526    -0.31300
H1575       H  0.74718343  0.05868552  0.38976029     0.12900
H1576       H  0.74657245  0.44417041  0.38813274     0.13500
C1577       C  0.00433782  0.74380228  0.38006906    -0.16100
C1578       C  0.00025486  0.78215037  0.39708339    -0.31300
H1579       H  0.00607764  0.70624523  0.38801970     0.12900
H1580       H  0.49850000  0.82089921  0.38934640     0.13500
C1581       C  0.49928239  0.46635071  0.39751678    -0.16100
C1582       C  0.49753359  0.50685185  0.38156365    -0.31300
H1583       H  0.50031486  0.42949624  0.38866974     0.12900
H1584       H  0.99510837  0.03830452  0.38967593     0.13500
C1585       C  0.74680126  0.73797059  0.08050038    -0.16100
C1586       C  0.78640200  0.73447487  0.06435512    -0.31300
H1587       H  0.70981860  0.73931748  0.07176250     0.12900
H1588       H  0.82333702  0.73311668  0.07316163     0.13500
C1589       C  0.78943606  0.48775530  0.08160772    -0.16100
C1590       C  0.75202325  0.98422593  0.06289184    -0.31300
H1591       H  0.82648356  0.98966534  0.07512947     0.12900
H1592       H  0.71511379  0.48072296  0.06950641     0.13500
C1593       C  0.01600147  0.76347069  0.07824692    -0.16100
C1594       C  0.97609335  0.76530525  0.06195073    -0.31300
H1595       H  0.05296487  0.76241915  0.06957649     0.12900
H1596       H  0.43839369  0.76344021  0.07231098     0.13500
C1597       C  0.97684578  0.01776825  0.06180969    -0.16100
C1598       C  0.01671676  0.01822746  0.07820211    -0.31300
H1599       H  0.43934552  0.51531880  0.07116715     0.12900
H1600       H  0.05381505  0.01875463  0.06960290     0.13500
loop_ 
_geom_bond_atom_site_label_1 
_geom_bond_atom_site_label_2 
_geom_bond_distance 
_geom_bond_site_symmetry_2 
_ccdc_geom_bond_type 
O1         Cu409   2.011       .  S
O1          C811   1.276       .  A
O2           Cu9   2.001       .  S
O2          C812   1.275       .  A
O3           Cu9   2.019       .  S
O3         C1213   1.278       .  A
O4           Cu9   2.022       .  S
O4           C14   1.281       .  A
O5         Cu410   2.010       .  S
O5          C814   1.277       .  A
O6          Cu10   2.013       .  S
O6           C13   1.278       .  A
O7         Cu410   2.002       .  S
O7           C12   1.277       .  A
O8          Cu10   2.006       .  S
O8           C11   1.277       .  A
Cu9         O401   2.001       .  S
Cu9       Cu1210   2.377       .  S
Cu10        O405   2.012       .  S
Cu10        O407   2.002   1_545  S
Cu10      Cu1209   2.377   1_455  S
C11         O801   1.278   1_455  A
C11         C825   1.467       .  S
C12         O802   1.278   1_455  A
C12         C826   1.464       .  S
C13        O1203   1.277   1_455  A
C13          C70   1.463   1_455  S
C14         O805   1.275       .  A
C14         C398   1.475       .  S
O15         Cu23   2.032       .  S
O15          C25   1.282       .  A
O16         Cu23   2.026       .  S
O16          C26   1.281       .  A
O17         Cu23   1.993       .  S
O17          C27   1.273       .  A
O18         Cu23   1.996       .  S
O18          C28   1.274       .  A
O19         Cu24   2.002       .  S
O19         C828   1.275       .  A
O20         Cu24   2.002       .  S
O20         C827   1.276       .  A
O21         Cu24   2.005       .  S
O21         C826   1.278       .  A
O22         Cu24   2.010       .  S
O22         C825   1.278       .  A
Cu23       Cu824   2.377       .  S
Cu24       Cu823   2.377   1_455  S
C25         O822   1.274       .  A
C25         C811   1.468       .  S
C26         O821   1.273       .  A
C26         C812   1.465       .  S
C27         O820   1.283       .  A
C27         C393   1.477       .  S
C28         O819   1.280       .  A
C28          C82   1.460       .  S
O29        Cu437   1.994   1_545  S
O29          C39   1.274       .  A
O30         Cu37   1.993       .  S
O30          C40   1.274       .  A
O31         Cu37   2.034       .  S
O31         C441   1.281       .  A
O32        Cu437   2.040       .  S
O32          C42   1.284       .  A
O33         Cu38   1.986       .  S
O33          C42   1.272       .  A
O34         Cu38   1.989       .  S
O34          C41   1.273       .  A
O35        Cu438   2.021       .  S
O35          C40   1.281       .  A
O36         Cu38   2.018   1_545  S
O36          C39   1.280       .  A
Cu37        O429   1.992       .  S
Cu37        O432   2.039       .  S
Cu37       Cu438   2.377       .  S
Cu38        O435   2.019       .  S
Cu38       Cu437   2.377       .  S
C39          C56   1.464       .  S
C40          C55   1.466       .  S
C41         O431   1.281       .  A
C41          C95   1.461       .  S
C42         C389   1.478       .  S
O43         Cu51   2.026       .  S
O43          C53   1.280       .  A
O44         Cu51   2.033       .  S
O44          C54   1.283       .  A
O45         Cu51   1.997       .  S
O45          C55   1.274       .  A
O46         Cu51   1.995       .  S
O46          C56   1.274       .  A
O47         Cu52   2.017       .  S
O47          C56   1.280       .  A
O48         Cu52   2.019       .  S
O48          C55   1.281       .  A
O49         Cu52   1.990       .  S
O49          C54   1.273       .  A
O50         Cu52   1.993       .  S
O50          C53   1.273       .  A
Cu51        Cu52   2.378       .  S
C53         C111   1.459       .  S
C54         C385   1.476       .  S
O57         Cu65   2.003   1_455  S
O57          C67   1.277       .  A
O58        Cu865   2.007       .  S
O58          C68   1.278       .  A
O59        Cu865   2.001       .  S
O59         C869   1.277       .  A
O60         Cu65   2.004       .  S
O60          C70   1.275       .  A
O61         Cu66   2.023       .  S
O61         C470   1.279       .  A
O62         Cu66   2.023       .  S
O62         C469   1.279       .  A
O63        Cu866   2.006       .  S
O63         C468   1.277       .  A
O64         Cu66   2.007   1_455  S
O64         C467   1.277       .  A
Cu65        O858   2.009       .  S
Cu65        O859   2.003       .  S
Cu65       Cu466   2.377   1_545  S
Cu66        O863   2.010       .  S
Cu66       Cu465   2.377       .  S
C67         O464   1.277   1_545  A
C67          C97   1.463       .  S
C68         O463   1.277   1_545  A
C68          C98   1.466       .  S
C69         O859   1.277       .  A
C69         O462   1.279   1_545  A
C69         C382   1.475       .  S
C70         O461   1.279   1_545  A
O71         Cu79   2.030       .  S
O71          C81   1.283       .  A
O72         Cu79   2.024       .  S
O72          C82   1.279       .  A
O73         Cu79   1.999       .  S
O73          C83   1.275       .  A
O74        Cu879   2.002       .  S
O74          C84   1.276       .  A
O75        Cu880   2.020       .  S
O75          C84   1.280       .  A
O76         Cu80   2.017       .  S
O76          C83   1.280       .  A
O77         Cu80   1.999       .  S
O77          C82   1.275       .  A
O78         Cu80   1.996       .  S
O78          C81   1.274       .  A
Cu79        O874   2.001       .  S
Cu79        Cu80   2.377       .  S
Cu80        O875   2.013       .  S
C81         C377   1.478       .  S
C83         C109   1.466       .  S
C84         C110   1.469       .  S
O85         Cu93   2.011       .  S
O85         C495   1.276       .  A
O86         Cu93   2.011       .  S
O86         C496   1.280       .  A
O87         Cu93   2.008       .  S
O87         C497   1.278       .  A
O88         Cu93   2.012       .  S
O88         C498   1.278       .  A
O89         Cu94   2.005       .  S
O89          C98   1.277       .  A
O90         Cu94   1.999       .  S
O90          C97   1.276       .  A
O91         Cu94   2.013       .  S
O91          C96   1.277       .  A
O92         Cu94   2.014       .  S
O92          C95   1.278   1_545  A
Cu93       Cu494   2.377       .  S
Cu94       Cu493   2.377   1_545  S
C95         O485   1.277       .  A
C96         O486   1.280   1_545  A
C96         C373   1.479       .  S
C97         O487   1.278   1_545  A
C98         O488   1.278   1_545  A
O99        Cu107   2.002       .  S
O99         C109   1.276       .  A
O100       Cu107   2.007       .  S
O100        C110   1.276       .  A
O101       Cu107   2.021       .  S
O101        C111   1.278       .  A
O102       Cu107   2.029       .  S
O102        C112   1.282       .  A
O103       Cu108   1.996       .  S
O103        C112   1.274       .  A
O104       Cu108   1.998       .  S
O104        C111   1.275       .  A
O105       Cu108   2.017       .  S
O105        C110   1.280       .  A
O106       Cu108   2.012       .  S
O106        C109   1.279       .  A
Cu107      Cu108   2.377       .  S
C112        C369   1.477       .  S
O113       Cu921   2.019       .  S
O113        C123   1.281   1_545  A
O114       Cu121   2.010   1_455  S
O114        C124   1.279   1_545  A
O115       Cu121   1.993       .  S
O115        C125   1.276   1_545  A
O116       Cu121   1.989       .  S
O116        C126   1.273   1_545  A
O117       Cu122   2.038       .  S
O117        C526   1.283       .  A
O118       Cu122   2.035       .  S
O118        C525   1.280       .  A
O119       Cu122   2.006   1_455  S
O119        C524   1.276       .  A
O120       Cu922   1.994       .  S
O120        C523   1.274       .  A
Cu121       O913   2.013       .  S
Cu121      Cu522   2.375   1_545  S
Cu122       O920   2.003       .  S
Cu122      Cu521   2.375       .  S
C123        O520   1.274       .  A
C123        C154   1.466       .  S
C124        O519   1.275       .  A
C124        C153   1.466       .  S
C125        O518   1.280       .  A
C125        C381   1.482       .  S
C126        O517   1.283       .  A
C126        C366   1.477       .  S
O127       Cu135   2.038       .  S
O127        C137   1.283       .  A
O128       Cu135   2.032       .  S
O128        C138   1.282       .  A
O129       Cu135   1.999       .  S
O129        C139   1.275       .  A
O130       Cu935   2.000   1_455  S
O130        C140   1.275       .  A
O131       Cu936   2.012   1_455  S
O131        C140   1.280       .  A
O132       Cu136   2.017       .  S
O132        C139   1.280       .  A
O133       Cu136   1.990       .  S
O133        C138   1.274       .  A
O134       Cu136   1.988       .  S
O134        C137   1.273       .  A
Cu135       O930   1.993       .  S
Cu135      Cu136   2.376       .  S
Cu136       O931   2.019       .  S
C137        C378   1.477       .  S
C138        C361   1.474       .  S
C139        C168   1.466       .  S
C140        C167   1.465       .  S
O141       Cu149   1.992       .  S
O141        C551   1.274       .  A
O142       Cu149   1.990       .  S
O142        C552   1.273       .  A
O143       Cu149   2.023       .  S
O143        C553   1.280       .  A
O144       Cu149   2.021       .  S
O144        C554   1.281       .  A
O145       Cu150   1.992       .  S
O145        C154   1.274   1_545  A
O146       Cu150   1.989       .  S
O146        C153   1.274   1_545  A
O147       Cu150   2.036       .  S
O147        C152   1.283   1_545  A
O148       Cu150   2.030       .  S
O148        C151   1.282   1_545  A
Cu149      Cu550   2.376       .  S
Cu150      Cu549   2.375   1_545  S
C151        O541   1.274       .  A
C151        C374   1.475       .  S
C152        O542   1.273       .  A
C152        C357   1.477       .  S
C153        O543   1.281       .  A
C154        O544   1.281       .  A
O155       Cu163   1.994       .  S
O155        C165   1.274       .  A
O156       Cu163   1.996       .  S
O156        C166   1.277       .  A
O157       Cu163   2.021       .  S
O157        C167   1.280       .  A
O158       Cu163   2.023       .  S
O158        C168   1.281       .  A
O159       Cu164   1.992       .  S
O159        C168   1.274       .  A
O160       Cu164   1.991       .  S
O160        C167   1.274       .  A
O161       Cu164   2.029       .  S
O161        C166   1.279       .  A
O162       Cu164   2.031       .  S
O162        C165   1.282       .  A
Cu163      Cu164   2.375       .  S
C165        C370   1.477       .  S
C166        C353   1.481       .  S
O169       Cu177   2.007       .  S
O169        C979   1.277   1_455  A
O170       Cu177   2.006   1_554  S
O170        C980   1.278   1_455  A
O171       Cu177   2.006       .  S
O171        C981   1.278   1_455  A
O172       Cu577   2.007       .  S
O172        C982   1.278   1_455  A
O173       Cu578   2.014       .  S
O173        C182   1.280       .  A
O174       Cu178   2.010       .  S
O174        C181   1.279       .  A
O175       Cu178   2.002   1_554  S
O175        C180   1.275       .  A
O176       Cu178   2.004       .  S
O176        C179   1.277       .  A
Cu177       O572   2.006       .  S
Cu177      Cu978   2.376   1_455  S
Cu178       O573   2.013       .  S
Cu178      Cu977   2.376       .  S
C179        O969   1.278       .  A
C179       C1149   1.475       .  S
C180        O970   1.280       .  A
C180        C397   1.476       .  S
C181        O971   1.276       .  A
C181        C193   1.466       .  S
C182        O972   1.275       .  A
C182        C194   1.465       .  S
O183       Cu191   1.990       .  S
O183        C193   1.274       .  A
O184       Cu191   1.987       .  S
O184        C194   1.274       .  A
O185       Cu191   2.041   1_554  S
O185        C195   1.284       .  A
O186       Cu191   2.037       .  S
O186        C196   1.282       .  A
O187       Cu192   2.007       .  S
O187        C996   1.277   1_455  A
O188       Cu192   2.009   1_554  S
O188        C995   1.279   1_455  A
O189       Cu192   2.004       .  S
O189        C994   1.277   1_455  A
O190       Cu192   2.005       .  S
O190        C993   1.277   1_455  A
Cu191      Cu992   2.376       .  S
Cu192      Cu991   2.376   1_455  S
C193        O990   1.281       .  A
C194        O989   1.281       .  A
C195        O988   1.272       .  A
C195        C394   1.474       .  S
C196        O987   1.273       .  A
C196        C345   1.472       .  S
O197       Cu205   2.019       .  S
O197        C207   1.281       .  A
O198       Cu605   2.019   1_545  S
O198        C208   1.281       .  A
O199       Cu205   1.979       .  S
O199        C209   1.274       .  A
O200       Cu205   1.978   1_554  S
O200        C210   1.271       .  A
O201       Cu206   2.046   1_554  S
O201        C210   1.285       .  A
O202       Cu206   2.043       .  S
O202        C209   1.282       .  A
O203       Cu606   1.992   1_545  S
O203        C208   1.274       .  A
O204       Cu206   1.996       .  S
O204        C207   1.274       .  A
Cu205       O598   2.018       .  S
Cu205      Cu206   2.375       .  S
Cu206       O603   1.993       .  S
C207        C221   1.465       .  S
C208        C222   1.465       .  S
C209        C341   1.482       .  S
C210        C390   1.476       .  S
O211       Cu219   1.994       .  S
O211        C221   1.274       .  A
O212       Cu219   1.995       .  S
O212        C222   1.274       .  A
O213       Cu219   2.032   1_554  S
O213        C223   1.283       .  A
O214       Cu219   2.027       .  S
O214        C224   1.282       .  A
O215       Cu220   1.995       .  S
O215        C224   1.274       .  A
O216       Cu220   1.992   1_554  S
O216        C223   1.273       .  A
O217       Cu220   2.018       .  S
O217        C222   1.280       .  A
O218       Cu220   2.019       .  S
O218        C221   1.281       .  A
Cu219      Cu220   2.376       .  S
C223        C386   1.477       .  S
C224        C337   1.476       .  S
O225       Cu233   2.017       .  S
O225       C1035   1.279       .  A
O226       Cu233   2.017       .  S
O226       C1036   1.279       .  A
O227       Cu233   2.002       .  S
O227       C1037   1.276       .  A
O228       Cu633   2.002       .  S
O228       C1038   1.276       .  A
O229       Cu634   2.005       .  S
O229        C238   1.278   1_455  A
O230       Cu234   2.011       .  S
O230        C237   1.278   1_455  A
O231       Cu234   2.011       .  S
O231        C236   1.276   1_455  A
O232       Cu234   2.008       .  S
O232        C235   1.279   1_455  A
Cu233       O628   1.999       .  S
Cu233     Cu1034   2.377       .  S
Cu234       O629   2.007       .  S
Cu234     Cu1033   2.377   1_455  S
C235       O1025   1.277       .  A
C235        C350   1.476       .  S
C236       O1026   1.277       .  A
C236        C291   1.459       .  S
C237       O1027   1.277       .  A
C237        C250   1.466       .  S
C238       O1028   1.277       .  A
C238        C249   1.464       .  S
O239       Cu247   2.005       .  S
O239        C249   1.277   1_455  A
O240       Cu247   2.006       .  S
O240        C250   1.277   1_455  A
O241       Cu247   2.012       .  S
O241        C251   1.279   1_455  A
O242       Cu247   2.011       .  S
O242        C252   1.277   1_455  A
O243       Cu248   2.009       .  S
O243       C1052   1.277       .  A
O244       Cu248   2.012       .  S
O244       C1051   1.276       .  A
O245       Cu248   2.013       .  S
O245       C1050   1.279       .  A
O246       Cu248   2.012       .  S
O246       C1049   1.279       .  A
Cu247     Cu1048   2.378   1_455  S
Cu248     Cu1047   2.377       .  S
C249       O1046   1.278       .  A
C250       O1045   1.278       .  A
C251       O1044   1.276       .  A
C251        C346   1.475       .  S
C252       O1043   1.276       .  A
C252       C1108   1.457       .  S
O253       Cu261   2.012       .  S
O253        C263   1.277       .  A
O254       Cu261   2.011       .  S
O254        C264   1.277       .  A
O255       Cu661   2.017   1_545  S
O255        C265   1.280       .  A
O256       Cu261   2.009       .  S
O256        C266   1.279       .  A
O257       Cu262   1.998       .  S
O257        C266   1.275       .  A
O258       Cu662   2.002   1_545  S
O258        C265   1.276       .  A
O259       Cu262   2.016       .  S
O259        C264   1.278       .  A
O260       Cu262   2.013       .  S
O260        C263   1.279       .  A
Cu261       O655   2.017       .  S
Cu261      Cu262   2.377       .  S
Cu262       O658   2.003       .  S
C263        C342   1.474       .  S
C264        C321   1.462       .  S
C265        C279   1.467       .  S
C266        C280   1.463       .  S
O267       Cu275   1.999       .  S
O267        C277   1.275       .  A
O268       Cu275   2.001       .  S
O268        C278   1.275       .  A
O269       Cu275   2.018       .  S
O269        C279   1.280       .  A
O270       Cu275   2.014       .  S
O270        C280   1.279       .  A
O271       Cu276   1.995       .  S
O271        C280   1.275       .  A
O272       Cu276   1.999       .  S
O272        C279   1.275       .  A
O273       Cu276   2.025       .  S
O273        C278   1.280       .  A
O274       Cu276   2.024       .  S
O274        C277   1.282       .  A
Cu275      Cu276   2.377       .  S
C277        C338   1.476       .  S
C278        C336   1.462       .  S
O281       Cu289   2.024       .  S
O281        C691   1.279       .  A
O282       Cu289   2.032       .  S
O282        C692   1.283   1_545  A
O283      Cu1089   1.996       .  S
O283        C693   1.275   1_545  A
O284       Cu289   1.997   1_455  S
O284        C694   1.275   1_545  A
O285       Cu290   2.017   1_455  S
O285        C294   1.280       .  A
O286      Cu1090   2.014       .  S
O286        C293   1.280       .  A
O287       Cu290   1.995       .  S
O287        C292   1.274       .  A
O288       Cu290   1.994       .  S
O288        C291   1.274       .  A
Cu289      O1083   1.994       .  S
Cu289      Cu690   2.377   1_545  S
Cu290      O1086   2.017       .  S
Cu290      Cu689   2.377       .  S
C291        O681   1.279       .  A
C292        O682   1.283       .  A
C292        C365   1.479       .  S
C293        O683   1.275       .  A
C293        C320   1.464       .  S
C294        O684   1.275       .  A
C294        C319   1.465       .  S
O295      Cu1103   2.004       .  S
O295        C305   1.277       .  A
O296       Cu303   2.005   1_455  S
O296        C306   1.277       .  A
O297       Cu303   2.011       .  S
O297       C1107   1.280       .  A
O298      Cu1103   2.012       .  S
O298        C308   1.277       .  A
O299       Cu304   2.010       .  S
O299        C308   1.277       .  A
O300       Cu304   2.010       .  S
O300        C307   1.276       .  A
O301      Cu1104   2.010   1_455  S
O301        C306   1.278       .  A
O302       Cu304   2.007       .  S
O302        C305   1.278       .  A
Cu303      O1095   2.003       .  S
Cu303      O1098   2.008       .  S
Cu303     Cu1104   2.377       .  S
Cu304      O1101   2.009       .  S
Cu304     Cu1103   2.377       .  S
C305        C334   1.464       .  S
C306        C333   1.467       .  S
C307       O1097   1.280       .  A
C307        C362   1.479       .  S
C308       C1052   1.460       .  S
O309       Cu317   1.999       .  S
O309        C319   1.275       .  A
O310       Cu317   1.998       .  S
O310        C320   1.275       .  A
O311       Cu317   2.029       .  S
O311        C321   1.280       .  A
O312       Cu317   2.035       .  S
O312        C322   1.283       .  A
O313       Cu318   1.993       .  S
O313        C722   1.274   1_545  A
O314       Cu318   1.999       .  S
O314        C721   1.274   1_545  A
O315       Cu318   2.014       .  S
O315        C720   1.280   1_545  A
O316       Cu318   2.015       .  S
O316        C719   1.280   1_545  A
Cu317      Cu718   2.377       .  S
Cu318      Cu717   2.377   1_545  S
C319        O716   1.280       .  A
C320        O715   1.280       .  A
C321        O714   1.274       .  A
C322        O713   1.274       .  A
C322        C358   1.478       .  S
O323       Cu331   2.010       .  S
O323        C333   1.278       .  A
O324       Cu331   2.004       .  S
O324        C334   1.277       .  A
O325       Cu331   2.021       .  S
O325        C335   1.279       .  A
O326       Cu331   2.022       .  S
O326        C336   1.279       .  A
O327       Cu332   2.005       .  S
O327        C336   1.276       .  A
O328       Cu332   2.004       .  S
O328        C335   1.277       .  A
O329       Cu332   2.004       .  S
O329        C334   1.277       .  A
O330       Cu332   2.008       .  S
O330        C333   1.277       .  A
Cu331      Cu332   2.377       .  S
C335        C354   1.475       .  S
C337        C338   1.340       .  D
C337        H339   1.088       .  S
C338        H340   1.088       .  S
C341        C342   1.350       .  D
C341        H343   1.087       .  S
C342        H744   1.088       .  S
H344        C742   1.088       .  S
C345       C1146   1.341       .  D
C345       H1147   1.088       .  S
C346       C1145   1.344   1_655  D
C346       H1148   1.086       .  S
H347       C1145   1.086       .  S
H348       C1146   1.087       .  S
C349        C979   1.475   1_455  S
C349        C350   1.344   1_455  D
C349        H351   1.087       .  S
C350       H1552   1.086       .  S
H352       C1550   1.087       .  S
C353        C354   1.347       .  D
C353        H355   1.086       .  S
C354        H356   1.087       .  S
C357        C758   1.340   1_565  D
C357        H759   1.087       .  S
C358        C757   1.340       .  D
C358        H760   1.086       .  S
H359        C757   1.087       .  S
H360        C758   1.086       .  S
C361        C362   1.341       .  D
C361       H1163   1.089       .  S
C362        H364   1.088       .  S
H363       C1161   1.089       .  S
C365        C766   1.340       .  D
C365        H367   1.086       .  S
C366        C765   1.340       .  D
C366       H1168   1.086   1_565  S
H368       C1166   1.086       .  S
C369        C370   1.340       .  D
C369        H371   1.086       .  S
C370        H372   1.086       .  S
C373        C374   1.342   1_545  D
C373        H775   1.088       .  S
C374        H376   1.089       .  S
H375        C773   1.088       .  S
C377        C378   1.340       .  D
C377        H379   1.086       .  S
C378       H1180   1.086       .  S
H380       C1178   1.087       .  S
C381        C382   1.347   1_565  D
C381        H383   1.086       .  S
C382       H1584   1.087       .  S
H384       C1582   1.087       .  S
C385        C386   1.339       .  D
C385        H387   1.087       .  S
C386        H388   1.087       .  S
C389        C790   1.337       .  D
C389        H791   1.086       .  S
C390        C789   1.337       .  D
C390        H792   1.087       .  S
H391        C789   1.087       .  S
H392        C790   1.086       .  S
C393        C394   1.338       .  D
C393        H395   1.086       .  S
C394       H1196   1.087       .  S
H396       C1194   1.086       .  S
C397        C398   1.342       .  D
C397       H1599   1.087       .  S
C398        H400   1.087       .  S
H399       C1597   1.088       .  S
O401       C1211   1.277       .  A
O402       Cu409   2.000   1_565  S
O402       C1212   1.277       .  A
O403       Cu409   2.020       .  S
O403        C813   1.278       .  A
O404       Cu409   2.022       .  S
O404        C414   1.281       .  A
O405       C1214   1.278       .  A
O406       Cu410   2.012       .  S
O406        C413   1.277       .  A
O407        C412   1.276       .  A
O408       Cu410   2.007       .  S
O408        C411   1.277       .  A
Cu409      Cu810   2.377       .  S
Cu410      Cu809   2.377   1_455  S
C411       O1201   1.279   1_455  A
C411       C1225   1.468       .  S
C412       O1202   1.278   1_455  A
C412       C1226   1.463       .  S
C413        O803   1.277   1_455  A
C413        C470   1.462   1_455  S
C414       O1205   1.275       .  A
C414        C798   1.475       .  S
O415       Cu423   2.000       .  S
O415        C425   1.277       .  A
O416       Cu423   1.995       .  S
O416        C426   1.276       .  A
O417       Cu423   2.011       .  S
O417        C427   1.278       .  A
O418       Cu423   2.014       .  S
O418        C428   1.277       .  A
O419       Cu424   2.004       .  S
O419       C1228   1.276       .  A
O420       Cu424   2.003       .  S
O420       C1227   1.276       .  A
O421       Cu424   2.007       .  S
O421       C1226   1.278       .  A
O422       Cu424   2.014       .  S
O422       C1225   1.279       .  A
Cu423     Cu1224   2.377       .  S
Cu424     Cu1223   2.377   1_455  S
C425       O1222   1.279       .  A
C425       C1211   1.469       .  S
C426       O1221   1.278       .  A
C426       C1212   1.464       .  S
C427       O1220   1.277       .  A
C427        C793   1.474       .  S
C428       O1219   1.277       .  A
C428        C482   1.460       .  S
O429        C439   1.274       .  A
O430       Cu437   1.996       .  S
O430        C440   1.274       .  A
O431       Cu437   2.035       .  S
O432        C442   1.284       .  A
O433       Cu438   1.986       .  S
O433        C442   1.272       .  A
O434       Cu438   1.987       .  S
O434        C441   1.273       .  A
O435        C440   1.281       .  A
O436       Cu438   2.020       .  S
O436        C439   1.281       .  A
C439        C456   1.464       .  S
C440        C455   1.466       .  S
C441        C495   1.460       .  S
C442        C789   1.477       .  S
O443       Cu451   2.024       .  S
O443        C453   1.280       .  A
O444       Cu451   2.031       .  S
O444        C454   1.283       .  A
O445       Cu451   1.993       .  S
O445        C455   1.274       .  A
O446       Cu451   1.992       .  S
O446        C456   1.274       .  A
O447       Cu452   2.019       .  S
O447        C456   1.281       .  A
O448       Cu452   2.022       .  S
O448        C455   1.281       .  A
O449       Cu452   1.990       .  S
O449        C454   1.273       .  A
O450       Cu452   1.993       .  S
O450        C453   1.273       .  A
Cu451      Cu452   2.378       .  S
C453        C511   1.458       .  S
C454        C785   1.476       .  S
O457       Cu465   2.002   1_455  S
O457        C467   1.277       .  A
O458      Cu1265   2.008       .  S
O458        C468   1.278       .  A
O459      Cu1265   2.003       .  S
O459       C1269   1.277       .  A
O460       Cu465   2.005       .  S
O460        C470   1.275       .  A
O461       Cu466   2.024       .  S
O462       Cu466   2.022       .  S
O463      Cu1266   2.007       .  S
O464       Cu466   2.006   1_455  S
Cu465      O1258   2.007       .  S
Cu465      O1259   2.004       .  S
Cu466      O1263   2.009       .  S
C467        C497   1.463       .  S
C468        C498   1.466       .  S
C469       O1259   1.277       .  A
C469        C782   1.475       .  S
O471       Cu479   2.030       .  S
O471        C481   1.283       .  A
O472       Cu479   2.025       .  S
O472        C482   1.279       .  A
O473       Cu479   1.996       .  S
O473        C483   1.275       .  A
O474      Cu1279   2.001       .  S
O474        C484   1.276       .  A
O475      Cu1280   2.019       .  S
O475        C484   1.280       .  A
O476       Cu480   2.016       .  S
O476        C483   1.280       .  A
O477       Cu480   1.998       .  S
O477        C482   1.274       .  A
O478       Cu480   1.995       .  S
O478        C481   1.274       .  A
Cu479      O1274   2.000       .  S
Cu479      Cu480   2.377       .  S
Cu480      O1275   2.017       .  S
C481        C777   1.478       .  S
C483        C509   1.464       .  S
C484        C510   1.468       .  S
O485       Cu493   2.011       .  S
O486       Cu493   2.011       .  S
O487       Cu493   2.007       .  S
O488       Cu493   2.011       .  S
O489       Cu494   2.005       .  S
O489        C498   1.277       .  A
O490       Cu494   1.998       .  S
O490        C497   1.277       .  A
O491       Cu494   2.013       .  S
O491        C496   1.277       .  A
O492       Cu494   2.013       .  S
O492        C495   1.278       .  A
C496        C773   1.479       .  S
O499       Cu507   2.000       .  S
O499        C509   1.276       .  A
O500       Cu507   2.005       .  S
O500        C510   1.276       .  A
O501       Cu507   2.019       .  S
O501        C511   1.278       .  A
O502       Cu507   2.028       .  S
O502        C512   1.282       .  A
O503       Cu508   1.997       .  S
O503        C512   1.274       .  A
O504       Cu508   1.998       .  S
O504        C511   1.275       .  A
O505       Cu508   2.017       .  S
O505        C510   1.280       .  A
O506       Cu508   2.010       .  S
O506        C509   1.279       .  A
Cu507      Cu508   2.377       .  S
C512        C769   1.477       .  S
O513      Cu1321   2.020       .  S
O513        C523   1.281       .  A
O514       Cu521   2.009   1_455  S
O514        C524   1.279       .  A
O515       Cu521   1.992       .  S
O515        C525   1.276       .  A
O516       Cu521   1.989   1_455  S
O516        C526   1.273   1_455  A
O517       Cu522   2.036       .  S
O518       Cu522   2.033       .  S
O519       Cu522   2.006   1_455  S
O520      Cu1322   1.997       .  S
Cu521      O1313   2.011       .  S
Cu522      O1320   2.002       .  S
C523        C554   1.466       .  S
C524        C553   1.466       .  S
C525        C781   1.483       .  S
C526        C766   1.478       .  S
O527       Cu535   2.040       .  S
O527        C537   1.283       .  A
O528       Cu535   2.034       .  S
O528        C538   1.282       .  A
O529       Cu535   1.996       .  S
O529        C539   1.274       .  A
O530      Cu1335   2.002   1_455  S
O530        C540   1.275       .  A
O531      Cu1336   2.010   1_455  S
O531        C540   1.279       .  A
O532       Cu536   2.019       .  S
O532        C539   1.280       .  A
O533       Cu536   1.990       .  S
O533        C538   1.274       .  A
O534       Cu536   1.986       .  S
O534        C537   1.272       .  A
Cu535      O1330   1.992       .  S
Cu535      Cu536   2.376       .  S
Cu536      O1331   2.021       .  S
C537        C778   1.476       .  S
C538        C761   1.475       .  S
C539        C568   1.466       .  S
C540        C567   1.464       .  S
O541       Cu549   1.992       .  S
O542       Cu549   1.990       .  S
O543       Cu549   2.026       .  S
O544       Cu549   2.024       .  S
O545       Cu550   1.994       .  S
O545        C554   1.274       .  A
O546       Cu550   1.991       .  S
O546        C553   1.274       .  A
O547       Cu550   2.038       .  S
O547        C552   1.283       .  A
O548       Cu550   2.033       .  S
O548        C551   1.282       .  A
C551        C774   1.475       .  S
C552        C757   1.478       .  S
O555       Cu563   1.994       .  S
O555        C565   1.274       .  A
O556       Cu563   1.998       .  S
O556        C566   1.277       .  A
O557       Cu563   2.020       .  S
O557        C567   1.280       .  A
O558       Cu563   2.021       .  S
O558        C568   1.281       .  A
O559       Cu564   1.994       .  S
O559        C568   1.274       .  A
O560       Cu564   1.992       .  S
O560        C567   1.274       .  A
O561       Cu564   2.028       .  S
O561        C566   1.279       .  A
O562       Cu564   2.031       .  S
O562        C565   1.282       .  A
Cu563      Cu564   2.375       .  S
C565        C770   1.477       .  S
C566        C753   1.481       .  S
O569       Cu577   2.008       .  S
O569       C1379   1.277   1_455  A
O570       Cu577   2.009   1_554  S
O570       C1380   1.279   1_455  A
O571       Cu577   2.008   1_565  S
O571       C1381   1.278   1_455  A
O572       C1382   1.277   1_455  A
O573        C582   1.278       .  A
O574       Cu578   2.016   1_565  S
O574        C581   1.279       .  A
O575       Cu578   2.002   1_554  S
O575        C580   1.275       .  A
O576       Cu578   2.003       .  S
O576        C579   1.277       .  A
Cu577     Cu1378   2.376   1_455  S
Cu578     Cu1377   2.376       .  S
C579       O1369   1.278       .  A
C579       C1549   1.474       .  S
C580       O1370   1.280       .  A
C580        C797   1.476       .  S
C581       O1371   1.276       .  A
C581        C593   1.466       .  S
C582       O1372   1.277       .  A
C582        C594   1.465       .  S
O583       Cu591   2.015       .  S
O583        C593   1.278       .  A
O584       Cu591   2.012       .  S
O584        C594   1.278       .  A
O585       Cu591   2.016   1_554  S
O585        C595   1.278       .  A
O586       Cu591   2.015       .  S
O586        C596   1.279       .  A
O587       Cu592   2.006       .  S
O587       C1396   1.277   1_455  A
O588       Cu592   2.007   1_554  S
O588       C1395   1.279   1_455  A
O589       Cu592   2.006       .  S
O589       C1394   1.277   1_455  A
O590       Cu592   2.008       .  S
O590       C1393   1.277   1_455  A
Cu591     Cu1392   2.376       .  S
Cu592     Cu1391   2.376   1_455  S
C593       O1390   1.277       .  A
C594       O1389   1.277       .  A
C595       O1388   1.278       .  A
C595        C794   1.476       .  S
C596       O1387   1.276       .  A
C596        C745   1.474       .  S
O597       Cu605   2.020       .  S
O597        C607   1.281       .  A
O598        C608   1.281       .  A
O599       Cu605   1.980       .  S
O599        C609   1.274       .  A
O600       Cu605   1.979   1_554  S
O600        C610   1.271       .  A
O601       Cu606   2.046   1_554  S
O601        C610   1.285       .  A
O602       Cu606   2.043       .  S
O602        C609   1.282       .  A
O603        C608   1.274       .  A
O604       Cu606   1.996       .  S
O604        C607   1.274       .  A
Cu605      Cu606   2.375       .  S
C607        C621   1.466       .  S
C608        C622   1.465       .  S
C609        C741   1.483       .  S
C610        C790   1.477       .  S
O611       Cu619   1.995       .  S
O611        C621   1.274       .  A
O612       Cu619   1.995       .  S
O612        C622   1.274       .  A
O613       Cu619   2.031   1_554  S
O613        C623   1.283       .  A
O614       Cu619   2.026       .  S
O614        C624   1.282       .  A
O615       Cu620   1.995       .  S
O615        C624   1.274       .  A
O616       Cu620   1.990   1_554  S
O616        C623   1.273       .  A
O617       Cu620   2.018       .  S
O617        C622   1.280       .  A
O618       Cu620   2.019       .  S
O618        C621   1.281       .  A
Cu619      Cu620   2.376       .  S
C623        C786   1.476       .  S
C624        C737   1.476       .  S
O625       Cu633   2.017       .  S
O625       C1435   1.279       .  A
O626       Cu633   2.016       .  S
O626       C1436   1.279       .  A
O627       Cu633   2.005   1_565  S
O627       C1437   1.277       .  A
O628       C1438   1.276       .  A
O629        C638   1.278   1_455  A
O630       Cu634   2.008   1_565  S
O630        C637   1.278   1_455  A
O631       Cu634   2.010       .  S
O631        C636   1.276   1_455  A
O632       Cu634   2.008       .  S
O632        C635   1.279   1_455  A
Cu633     Cu1434   2.377       .  S
Cu634     Cu1433   2.377   1_455  S
C635       O1425   1.277       .  A
C635        C750   1.476       .  S
C636       O1426   1.278       .  A
C636        C691   1.460       .  S
C637       O1427   1.277       .  A
C637        C650   1.466       .  S
C638       O1428   1.277       .  A
C638        C649   1.464       .  S
O639       Cu647   2.005       .  S
O639        C649   1.277   1_455  A
O640       Cu647   2.005       .  S
O640        C650   1.277   1_455  A
O641       Cu647   2.008       .  S
O641        C651   1.279   1_455  A
O642       Cu647   2.009       .  S
O642        C652   1.276   1_455  A
O643       Cu648   2.007       .  S
O643       C1452   1.277       .  A
O644       Cu648   2.008       .  S
O644       C1451   1.276       .  A
O645       Cu648   2.009       .  S
O645       C1450   1.278       .  A
O646       Cu648   2.008       .  S
O646       C1449   1.278       .  A
Cu647     Cu1448   2.378   1_455  S
Cu648     Cu1447   2.377       .  S
C649       O1446   1.278       .  A
C650       O1445   1.278       .  A
C651       O1444   1.277       .  A
C651        C746   1.475       .  S
C652       O1443   1.277       .  A
C652       C1508   1.457       .  S
O653       Cu661   2.015       .  S
O653        C663   1.277       .  A
O654       Cu661   2.013       .  S
O654        C664   1.277       .  A
O655        C665   1.280       .  A
O656       Cu661   2.011       .  S
O656        C666   1.279       .  A
O657       Cu662   1.996       .  S
O657        C666   1.275       .  A
O658        C665   1.276       .  A
O659       Cu662   2.014       .  S
O659        C664   1.277       .  A
O660       Cu662   2.011       .  S
O660        C663   1.279       .  A
Cu661      Cu662   2.377       .  S
C663        C742   1.475       .  S
C664        C721   1.462       .  S
C665        C679   1.468       .  S
C666        C680   1.463       .  S
O667       Cu675   1.998       .  S
O667        C677   1.275       .  A
O668       Cu675   2.001       .  S
O668        C678   1.275       .  A
O669       Cu675   2.015       .  S
O669        C679   1.279       .  A
O670       Cu675   2.009       .  S
O670        C680   1.279       .  A
O671       Cu676   2.000       .  S
O671        C680   1.276       .  A
O672       Cu676   2.004       .  S
O672        C679   1.276       .  A
O673       Cu676   2.024       .  S
O673        C678   1.280       .  A
O674       Cu676   2.024       .  S
O674        C677   1.281       .  A
Cu675      Cu676   2.377       .  S
C677        C738   1.476       .  S
C678        C736   1.462       .  S
O681       Cu689   2.025       .  S
O682       Cu689   2.034       .  S
O683      Cu1489   1.995       .  S
O684       Cu689   1.997   1_455  S
O685       Cu690   2.019   1_455  S
O685        C694   1.280       .  A
O686      Cu1490   2.013       .  S
O686        C693   1.279       .  A
O687       Cu690   1.995       .  S
O687        C692   1.274       .  A
O688       Cu690   1.995       .  S
O688        C691   1.274   1_565  A
Cu689      O1483   1.996       .  S
Cu690      O1486   2.017       .  S
C692        C765   1.478       .  S
C693        C720   1.464       .  S
C694        C719   1.466       .  S
O695      Cu1503   2.007       .  S
O695        C705   1.277       .  A
O696       Cu703   2.004   1_455  S
O696        C706   1.277       .  A
O697       Cu703   2.012       .  S
O697       C1507   1.280       .  A
O698      Cu1503   2.013       .  S
O698        C708   1.277       .  A
O699       Cu704   2.008       .  S
O699        C708   1.277       .  A
O700       Cu704   2.009       .  S
O700        C707   1.276       .  A
O701      Cu1504   2.013   1_455  S
O701        C706   1.278       .  A
O702       Cu704   2.004       .  S
O702        C705   1.277       .  A
Cu703      O1495   2.000       .  S
Cu703      O1498   2.009       .  S
Cu703     Cu1504   2.377       .  S
Cu704      O1501   2.007       .  S
Cu704     Cu1503   2.377       .  S
C705        C734   1.464       .  S
C706        C733   1.467       .  S
C707       O1497   1.280       .  A
C707        C762   1.479       .  S
C708       C1452   1.459       .  S
O709       Cu717   2.001       .  S
O709        C719   1.275       .  A
O710       Cu717   1.997       .  S
O710        C720   1.275       .  A
O711       Cu717   2.028       .  S
O711        C721   1.280       .  A
O712       Cu717   2.033       .  S
O712        C722   1.283       .  A
O713       Cu718   1.993       .  S
O714       Cu718   1.998       .  S
O715       Cu718   2.014       .  S
O716       Cu718   2.014       .  S
C722        C758   1.478   1_565  S
O723       Cu731   2.009       .  S
O723        C733   1.278       .  A
O724       Cu731   2.004       .  S
O724        C734   1.277       .  A
O725       Cu731   2.022       .  S
O725        C735   1.279       .  A
O726       Cu731   2.023       .  S
O726        C736   1.279       .  A
O727       Cu732   2.004       .  S
O727        C736   1.275       .  A
O728       Cu732   2.004       .  S
O728        C735   1.277       .  A
O729       Cu732   2.004       .  S
O729        C734   1.277       .  A
O730       Cu732   2.010       .  S
O730        C733   1.277       .  A
Cu731      Cu732   2.377       .  S
C735        C754   1.476       .  S
C737        C738   1.340       .  D
C737        H739   1.088       .  S
C738        H740   1.088       .  S
C741        C742   1.350       .  D
C741        H743   1.087       .  S
C745       C1546   1.343       .  D
C745       H1547   1.087       .  S
C746       C1545   1.344   1_655  D
C746       H1548   1.086       .  S
H747       C1545   1.086       .  S
H748       C1546   1.087       .  S
C749       C1379   1.475   1_455  S
C749        C750   1.345   1_455  D
C749        H751   1.086       .  S
C750       H1152   1.086       .  S
H752       C1150   1.087       .  S
C753        C754   1.347       .  D
C753        H755   1.086       .  S
C754        H756   1.087       .  S
C761        C762   1.341       .  D
C761       H1563   1.088       .  S
C762        H764   1.088       .  S
H763       C1561   1.089       .  S
C765        H767   1.086       .  S
C766       H1568   1.086   1_655  S
H768       C1566   1.086       .  S
C769        C770   1.341       .  D
C769        H771   1.086       .  S
C770        H772   1.086       .  S
C773        C774   1.342       .  D
C774        H776   1.089       .  S
C777        C778   1.339       .  D
C777        H779   1.086       .  S
C778       H1580   1.087       .  S
H780       C1578   1.086   1_655  S
C781        C782   1.348       .  D
C781        H783   1.087       .  S
C782       H1184   1.087       .  S
H784       C1182   1.087       .  S
C785        C786   1.339       .  D
C785        H787   1.086       .  S
C786        H788   1.086       .  S
C793        C794   1.345       .  D
C793        H795   1.085       .  S
C794       H1596   1.085       .  S
H796       C1594   1.086       .  S
C797        C798   1.342       .  D
C797       H1199   1.087       .  S
C798        H800   1.087       .  S
H799       C1197   1.088       .  S
O801      Cu1209   2.011       .  S
O802       Cu809   2.008       .  S
O803       Cu809   2.014       .  S
O804       Cu809   2.013       .  S
O804        C814   1.279   1_655  A
O805      Cu1210   1.998       .  S
O806       Cu810   2.002       .  S
O806        C813   1.275       .  A
O807      Cu1210   2.011       .  S
O807        C812   1.280       .  A
O808       Cu810   2.011       .  S
O808        C811   1.280       .  A
Cu809      O1201   2.012       .  S
Cu810      O1205   1.999       .  S
Cu810      O1207   2.010   1_545  S
C813        C870   1.460       .  S
C814       C1198   1.476       .  S
O815       Cu823   2.008       .  S
O815        C825   1.277   1_655  A
O816       Cu823   2.004       .  S
O816        C826   1.277   1_655  A
O817       Cu823   2.021       .  S
O817        C827   1.280   1_655  A
O818       Cu823   2.023       .  S
O818        C828   1.279   1_655  A
O819       Cu824   2.026       .  S
O820       Cu824   2.029       .  S
O821       Cu824   1.986       .  S
O822       Cu824   1.989       .  S
C827       C1193   1.475       .  S
C828        C882   1.462       .  S
O829      Cu1237   1.994   1_545  S
O829        C839   1.274       .  A
O830       Cu837   1.994       .  S
O830        C840   1.274       .  A
O831       Cu837   2.029       .  S
O831       C1241   1.280       .  A
O832      Cu1237   2.033       .  S
O832        C842   1.283       .  A
O833       Cu838   1.985       .  S
O833        C842   1.272       .  A
O834       Cu838   1.987       .  S
O834        C841   1.273       .  A
O835      Cu1238   2.023       .  S
O835        C840   1.281       .  A
O836       Cu838   2.018   1_545  S
O836        C839   1.280       .  A
Cu837      O1229   1.993       .  S
Cu837      O1232   2.036       .  S
Cu837     Cu1238   2.377       .  S
Cu838      O1235   2.017       .  S
Cu838     Cu1237   2.378       .  S
C839        C856   1.464       .  S
C840        C855   1.467       .  S
C841       O1231   1.280       .  A
C841        C895   1.457       .  S
C842       C1189   1.475       .  S
O843       Cu851   2.030       .  S
O843        C853   1.281       .  A
O844       Cu851   2.037       .  S
O844        C854   1.283       .  A
O845       Cu851   2.000       .  S
O845        C855   1.275       .  A
O846       Cu851   1.996       .  S
O846        C856   1.274       .  A
O847       Cu852   2.015       .  S
O847        C856   1.280       .  A
O848       Cu852   2.019       .  S
O848        C855   1.281       .  A
O849       Cu852   1.989       .  S
O849        C854   1.273       .  A
O850       Cu852   1.992       .  S
O850        C853   1.273       .  A
Cu851      Cu852   2.377       .  S
C853        C911   1.460       .  S
C854       C1185   1.477       .  S
O857       Cu865   2.008       .  S
O857        C867   1.277       .  A
O858        C868   1.277       .  A
O860       Cu865   2.000       .  S
O860        C870   1.275       .  A
O861       Cu866   2.021       .  S
O861       C1270   1.279       .  A
O862       Cu866   2.022       .  S
O862       C1269   1.279       .  A
O863       C1268   1.278       .  A
O864       Cu866   2.002       .  S
O864       C1267   1.277       .  A
Cu865     Cu1266   2.377   1_545  S
Cu866     Cu1265   2.377       .  S
C867       O1264   1.277   1_545  A
C867        C897   1.465       .  S
C868       O1263   1.278   1_545  A
C868        C898   1.467       .  S
C869       O1262   1.279   1_545  A
C869       C1182   1.475       .  S
C870       O1261   1.279   1_545  A
O871       Cu879   2.030       .  S
O871        C881   1.283       .  A
O872       Cu879   2.026       .  S
O872        C882   1.279       .  A
O873       Cu879   1.993   1_655  S
O873        C883   1.274       .  A
O874        C884   1.275       .  A
O875        C884   1.279       .  A
O876       Cu880   2.012   1_655  S
O876        C883   1.279       .  A
O877       Cu880   2.000       .  S
O877        C882   1.275       .  A
O878       Cu880   1.994       .  S
O878        C881   1.274       .  A
Cu879      Cu880   2.377       .  S
C881       C1177   1.478       .  S
C883        C909   1.461       .  S
C884        C910   1.465       .  S
O885       Cu893   2.007       .  S
O885       C1295   1.276       .  A
O886       Cu893   2.010       .  S
O886       C1296   1.280       .  A
O887       Cu893   2.001       .  S
O887       C1297   1.277       .  A
O888       Cu893   2.007       .  S
O888       C1298   1.277       .  A
O889       Cu894   2.014       .  S
O889        C898   1.278       .  A
O890       Cu894   2.009       .  S
O890        C897   1.278       .  A
O891       Cu894   2.013       .  S
O891        C896   1.276       .  A
O892       Cu894   2.008       .  S
O892        C895   1.277   1_545  A
Cu893     Cu1294   2.377       .  S
Cu894     Cu1293   2.377   1_545  S
C895       O1285   1.276       .  A
C896       O1286   1.280   1_545  A
C896       C1173   1.481       .  S
C897       O1287   1.277   1_545  A
C898       O1288   1.277   1_545  A
O899       Cu907   1.992       .  S
O899        C909   1.275       .  A
O900       Cu907   1.997       .  S
O900        C910   1.275       .  A
O901       Cu907   2.024       .  S
O901        C911   1.279       .  A
O902       Cu907   2.030       .  S
O902        C912   1.283       .  A
O903       Cu908   1.995       .  S
O903        C912   1.274       .  A
O904       Cu908   1.997       .  S
O904        C911   1.275       .  A
O905       Cu908   2.018       .  S
O905        C910   1.280       .  A
O906       Cu908   2.011       .  S
O906        C909   1.279       .  A
Cu907      Cu908   2.378       .  S
C912       C1169   1.478       .  S
O913        C923   1.279   1_545  A
O914       Cu921   2.021       .  S
O914        C924   1.280   1_545  A
O915       Cu921   1.995       .  S
O915        C925   1.277   1_545  A
O916       Cu921   1.993       .  S
O916        C926   1.274   1_545  A
O917       Cu922   2.033       .  S
O917       C1326   1.283       .  A
O918       Cu922   2.030       .  S
O918       C1325   1.280       .  A
O919       Cu922   1.991       .  S
O919       C1324   1.274       .  A
O920       C1323   1.276       .  A
Cu921     Cu1322   2.375   1_545  S
Cu922     Cu1321   2.375       .  S
C923       O1320   1.276       .  A
C923        C954   1.466       .  S
C924       O1319   1.275       .  A
C924        C953   1.465       .  S
C925       O1318   1.280       .  A
C925       C1181   1.482       .  S
C926       O1317   1.283       .  A
C926       C1166   1.477   1_565  S
O927       Cu935   2.038       .  S
O927        C937   1.283       .  A
O928       Cu935   2.032       .  S
O928        C938   1.282       .  A
O929       Cu935   2.002       .  S
O929        C939   1.276       .  A
O930        C940   1.275       .  A
O931        C940   1.280       .  A
O932       Cu936   2.014       .  S
O932        C939   1.279       .  A
O933       Cu936   1.987       .  S
O933        C938   1.274       .  A
O934       Cu936   1.986       .  S
O934        C937   1.272       .  A
Cu935      Cu936   2.376       .  S
C937       C1178   1.476       .  S
C938       C1161   1.473       .  S
C939        C968   1.466       .  S
C940        C967   1.465       .  S
O941       Cu949   1.991       .  S
O941       C1351   1.274       .  A
O942       Cu949   1.989       .  S
O942       C1352   1.273       .  A
O943       Cu949   2.008       .  S
O943       C1353   1.279       .  A
O944       Cu949   2.010       .  S
O944       C1354   1.278       .  A
O945       Cu950   2.008       .  S
O945        C954   1.277   1_545  A
O946       Cu950   2.007       .  S
O946        C953   1.276   1_545  A
O947       Cu950   2.043       .  S
O947        C952   1.284   1_545  A
O948       Cu950   2.038       .  S
O948        C951   1.282   1_545  A
Cu949     Cu1350   2.376       .  S
Cu950     Cu1349   2.376   1_545  S
C951       O1341   1.274       .  A
C951       C1174   1.475       .  S
C952       O1342   1.272       .  A
C952       C1157   1.478       .  S
C953       O1343   1.279       .  A
C954       O1344   1.278       .  A
O955       Cu963   1.987       .  S
O955        C965   1.273       .  A
O956       Cu963   1.991       .  S
O956        C966   1.276       .  A
O957       Cu963   2.008       .  S
O957        C967   1.279       .  A
O958       Cu963   2.012       .  S
O958        C968   1.279       .  A
O959       Cu964   2.004       .  S
O959        C968   1.276       .  A
O960       Cu964   2.005       .  S
O960        C967   1.276       .  A
O961       Cu964   2.033       .  S
O961        C966   1.280       .  A
O962       Cu964   2.035       .  S
O962        C965   1.283       .  A
Cu963      Cu964   2.375       .  S
C965       C1170   1.476       .  S
C966       C1153   1.482       .  S
O969       Cu977   2.014       .  S
O970       Cu977   2.017   1_554  S
O971       Cu977   2.005       .  S
O972      Cu1377   2.001       .  S
O973      Cu1378   2.006       .  S
O973        C982   1.277       .  A
O974       Cu978   2.006       .  S
O974        C981   1.277       .  A
O975       Cu978   2.014   1_554  S
O975        C980   1.278       .  A
O976       Cu978   2.013       .  S
O976        C979   1.279       .  A
Cu977      O1372   2.002       .  S
Cu978      O1373   2.007       .  S
C980       C1197   1.477       .  S
C981        C993   1.465       .  S
C982        C994   1.465       .  S
O983       Cu991   2.009       .  S
O983        C993   1.278       .  A
O984       Cu991   2.007       .  S
O984        C994   1.278       .  A
O985       Cu991   2.013   1_554  S
O985        C995   1.277       .  A
O986       Cu991   2.010       .  S
O986        C996   1.279       .  A
O987       Cu992   1.981       .  S
O988       Cu992   1.980   1_554  S
O989       Cu992   2.026       .  S
O990       Cu992   2.025       .  S
C995       C1194   1.478       .  S
C996       C1145   1.475   1_655  S
O997      Cu1005   2.018       .  S
O997       C1007   1.281       .  A
O998      Cu1405   2.019   1_545  S
O998       C1008   1.281       .  A
O999      Cu1005   1.982       .  S
O999       C1009   1.275       .  A
O1000     Cu1005   1.981   1_554  S
O1000      C1010   1.272       .  A
O1001     Cu1006   2.040   1_554  S
O1001      C1010   1.284       .  A
O1002     Cu1006   2.037       .  S
O1002      C1009   1.282       .  A
O1003     Cu1406   1.993   1_545  S
O1003      C1008   1.274       .  A
O1004     Cu1006   1.997       .  S
O1004      C1007   1.274       .  A
Cu1005     O1398   2.019       .  S
Cu1005    Cu1006   2.376       .  S
Cu1006     O1403   1.992       .  S
C1007      C1021   1.465       .  S
C1008      C1022   1.465       .  S
C1009      C1141   1.480       .  S
C1010      C1190   1.475       .  S
O1011     Cu1019   1.991       .  S
O1011      C1021   1.274       .  A
O1012     Cu1019   1.995       .  S
O1012      C1022   1.274       .  A
O1013     Cu1019   2.038   1_554  S
O1013      C1023   1.284       .  A
O1014     Cu1019   2.032       .  S
O1014      C1024   1.283       .  A
O1015     Cu1020   1.991       .  S
O1015      C1024   1.273       .  A
O1016     Cu1020   1.989   1_554  S
O1016      C1023   1.273       .  A
O1017     Cu1020   2.019       .  S
O1017      C1022   1.281       .  A
O1018     Cu1020   2.021       .  S
O1018      C1021   1.281       .  A
Cu1019    Cu1020   2.376       .  S
C1023      C1186   1.478       .  S
C1024      C1137   1.476       .  S
O1025     Cu1033   2.010       .  S
O1026     Cu1033   2.010       .  S
O1027     Cu1033   2.005       .  S
O1028     Cu1433   2.005       .  S
O1029     Cu1434   2.008       .  S
O1029      C1038   1.278       .  A
O1030     Cu1034   2.014       .  S
O1030      C1037   1.279       .  A
O1031     Cu1034   2.004       .  S
O1031      C1036   1.275       .  A
O1032     Cu1034   2.001       .  S
O1032      C1035   1.277       .  A
Cu1033     O1428   2.002       .  S
Cu1034     O1429   2.011       .  S
C1035      C1150   1.476       .  S
C1036      C1091   1.460       .  S
C1037      C1050   1.466       .  S
C1038      C1049   1.464       .  S
O1039     Cu1047   2.000       .  S
O1039      C1049   1.276       .  A
O1040     Cu1047   2.000       .  S
O1040      C1050   1.276       .  A
O1041     Cu1047   2.009       .  S
O1041      C1051   1.280       .  A
O1042     Cu1047   2.012       .  S
O1042      C1052   1.277       .  A
O1043     Cu1048   2.003       .  S
O1044     Cu1048   2.006       .  S
O1045     Cu1048   2.008       .  S
O1046     Cu1048   2.008       .  S
C1051      C1146   1.479       .  S
O1053     Cu1061   2.011       .  S
O1053      C1063   1.277       .  A
O1054     Cu1061   2.010       .  S
O1054      C1064   1.276       .  A
O1055     Cu1461   2.018   1_545  S
O1055      C1065   1.280       .  A
O1056     Cu1061   2.009       .  S
O1056      C1066   1.279       .  A
O1057     Cu1062   1.999       .  S
O1057      C1066   1.276       .  A
O1058     Cu1462   2.002   1_545  S
O1058      C1065   1.276       .  A
O1059     Cu1062   2.014       .  S
O1059      C1064   1.278       .  A
O1060     Cu1062   2.013       .  S
O1060      C1063   1.279       .  A
Cu1061     O1455   2.016       .  S
Cu1061    Cu1062   2.377       .  S
Cu1062     O1458   2.004       .  S
C1063      C1142   1.474       .  S
C1064      C1121   1.461       .  S
C1065      C1079   1.467       .  S
C1066      C1080   1.464       .  S
O1067     Cu1075   2.000       .  S
O1067      C1077   1.275       .  A
O1068     Cu1075   2.001       .  S
O1068      C1078   1.275       .  A
O1069     Cu1075   2.018       .  S
O1069      C1079   1.280       .  A
O1070     Cu1075   2.015       .  S
O1070      C1080   1.279       .  A
O1071     Cu1076   1.996       .  S
O1071      C1080   1.275       .  A
O1072     Cu1076   2.000       .  S
O1072      C1079   1.275       .  A
O1073     Cu1076   2.026       .  S
O1073      C1078   1.280       .  A
O1074     Cu1076   2.025       .  S
O1074      C1077   1.282       .  A
Cu1075    Cu1076   2.377       .  S
C1077      C1138   1.477       .  S
C1078      C1136   1.462       .  S
O1081     Cu1089   2.024       .  S
O1081      C1491   1.279       .  A
O1082     Cu1089   2.032       .  S
O1082      C1492   1.283   1_545  A
O1083      C1493   1.274   1_545  A
O1084     Cu1089   2.004       .  S
O1084      C1494   1.275   1_545  A
O1085     Cu1090   2.016       .  S
O1085      C1094   1.280       .  A
O1086      C1093   1.280       .  A
O1087     Cu1090   1.994       .  S
O1087      C1092   1.274       .  A
O1088     Cu1090   1.997       .  S
O1088      C1091   1.275       .  A
Cu1089    Cu1490   2.377   1_545  S
Cu1090    Cu1489   2.377       .  S
C1091      O1481   1.279       .  A
C1092      O1482   1.282       .  A
C1092      C1165   1.477       .  S
C1093      O1483   1.275       .  A
C1093      C1120   1.465       .  S
C1094      O1484   1.275       .  A
C1094      C1119   1.467       .  S
O1095      C1105   1.277       .  A
O1096     Cu1103   2.008       .  S
O1096      C1106   1.277       .  A
O1097     Cu1103   2.013       .  S
O1098      C1108   1.276       .  A
O1099     Cu1104   2.007       .  S
O1099      C1108   1.277       .  A
O1100     Cu1104   2.010       .  S
O1100      C1107   1.276       .  A
O1101      C1106   1.278       .  A
O1102     Cu1104   2.008       .  S
O1102      C1105   1.278       .  A
C1105      C1134   1.464       .  S
C1106      C1133   1.467       .  S
C1107      C1162   1.478       .  S
O1109     Cu1117   1.996       .  S
O1109      C1119   1.275       .  A
O1110     Cu1117   1.995       .  S
O1110      C1120   1.274       .  A
O1111     Cu1117   2.028       .  S
O1111      C1121   1.280       .  A
O1112     Cu1117   2.035       .  S
O1112      C1122   1.283       .  A
O1113     Cu1118   1.993       .  S
O1113      C1522   1.273       .  A
O1114     Cu1118   1.996       .  S
O1114      C1521   1.274   1_545  A
O1115     Cu1118   2.020       .  S
O1115      C1520   1.281   1_545  A
O1116     Cu1118   2.022       .  S
O1116      C1519   1.281   1_545  A
Cu1117    Cu1518   2.377       .  S
Cu1118    Cu1517   2.377   1_545  S
C1119      O1516   1.280       .  A
C1120      O1515   1.281       .  A
C1121      O1514   1.274       .  A
C1122      O1513   1.274       .  A
C1122      C1158   1.479       .  S
O1123     Cu1131   2.014       .  S
O1123      C1133   1.278       .  A
O1124     Cu1131   2.006       .  S
O1124      C1134   1.278       .  A
O1125     Cu1131   2.018       .  S
O1125      C1135   1.278       .  A
O1126     Cu1131   2.020       .  S
O1126      C1136   1.278       .  A
O1127     Cu1132   2.008       .  S
O1127      C1136   1.276       .  A
O1128     Cu1132   2.007       .  S
O1128      C1135   1.278       .  A
O1129     Cu1132   2.002       .  S
O1129      C1134   1.277       .  A
O1130     Cu1132   2.006       .  S
O1130      C1133   1.277       .  A
Cu1131    Cu1132   2.377       .  S
C1135      C1154   1.475       .  S
C1137      C1138   1.340       .  D
C1137      H1139   1.088       .  S
C1138      H1140   1.088       .  S
C1141      C1142   1.349       .  D
C1141      H1143   1.087       .  S
C1142      H1544   1.088       .  S
H1144      C1542   1.087       .  S
C1149      C1150   1.346       .  D
C1149      H1151   1.087       .  S
C1153      C1154   1.348       .  D
C1153      H1155   1.086       .  S
C1154      H1156   1.087       .  S
C1157      C1558   1.339   1_565  D
C1157      H1559   1.087       .  S
C1158      C1557   1.340       .  D
C1158      H1560   1.087       .  S
H1159      C1557   1.087       .  S
H1160      C1558   1.087       .  S
C1161      C1162   1.341       .  D
C1162      H1164   1.088       .  S
C1165      C1566   1.340       .  D
C1165      H1167   1.086       .  S
C1166      C1565   1.340   1_545  D
C1169      C1170   1.339       .  D
C1169      H1171   1.086       .  S
C1170      H1172   1.086       .  S
C1173      C1174   1.342   1_545  D
C1173      H1575   1.088       .  S
C1174      H1176   1.089       .  S
H1175      C1573   1.088       .  S
C1177      C1178   1.339   1_455  D
C1177      H1179   1.086       .  S
C1181      C1182   1.347   1_565  D
C1181      H1183   1.086       .  S
C1185      C1186   1.339       .  D
C1185      H1187   1.086       .  S
C1186      H1188   1.086       .  S
C1189      C1590   1.337       .  D
C1189      H1591   1.087       .  S
C1190      C1589   1.337       .  D
C1190      H1592   1.086       .  S
H1191      C1589   1.086       .  S
H1192      C1590   1.087       .  S
C1193      C1194   1.344   1_455  D
C1193      H1195   1.086       .  S
C1197      C1198   1.345   1_655  D
C1198      H1200   1.088       .  S
O1202     Cu1209   2.005   1_565  S
O1203     Cu1209   2.014       .  S
O1204     Cu1209   2.013       .  S
O1204      C1214   1.279   1_655  A
O1206     Cu1210   2.001       .  S
O1206      C1213   1.275       .  A
O1207      C1212   1.278       .  A
O1208     Cu1210   2.021       .  S
O1208      C1211   1.279       .  A
C1213      C1270   1.460       .  S
C1214      C1598   1.477       .  S
O1215     Cu1223   2.006       .  S
O1215      C1225   1.277   1_655  A
O1216     Cu1223   1.999       .  S
O1216      C1226   1.276   1_655  A
O1217     Cu1223   2.018       .  S
O1217      C1227   1.280   1_655  A
O1218     Cu1223   2.021       .  S
O1218      C1228   1.279   1_655  A
O1219     Cu1224   2.008       .  S
O1220     Cu1224   2.008       .  S
O1221     Cu1224   2.016       .  S
O1222     Cu1224   2.022       .  S
C1227      C1593   1.475       .  S
C1228      C1282   1.462       .  S
O1229      C1239   1.274       .  A
O1230     Cu1237   1.997       .  S
O1230      C1240   1.274       .  A
O1231     Cu1237   2.027       .  S
O1232      C1242   1.284       .  A
O1233     Cu1238   1.987       .  S
O1233      C1242   1.272       .  A
O1234     Cu1238   1.987       .  S
O1234      C1241   1.273       .  A
O1235      C1240   1.281       .  A
O1236     Cu1238   2.019       .  S
O1236      C1239   1.281       .  A
C1239      C1256   1.464       .  S
C1240      C1255   1.465       .  S
C1241      C1295   1.458       .  S
C1242      C1589   1.476       .  S
O1243     Cu1251   2.026       .  S
O1243      C1253   1.280       .  A
O1244     Cu1251   2.031       .  S
O1244      C1254   1.283       .  A
O1245     Cu1251   1.991       .  S
O1245      C1255   1.274       .  A
O1246     Cu1251   1.990       .  S
O1246      C1256   1.273       .  A
O1247     Cu1252   2.021       .  S
O1247      C1256   1.281       .  A
O1248     Cu1252   2.024       .  S
O1248      C1255   1.281       .  A
O1249     Cu1252   1.989       .  S
O1249      C1254   1.273       .  A
O1250     Cu1252   1.993       .  S
O1250      C1253   1.273       .  A
Cu1251    Cu1252   2.378       .  S
C1253      C1311   1.459       .  S
C1254      C1585   1.476       .  S
O1257     Cu1265   2.011       .  S
O1257      C1267   1.278       .  A
O1258      C1268   1.277       .  A
O1260     Cu1265   2.001       .  S
O1260      C1270   1.275       .  A
O1261     Cu1266   2.024       .  S
O1262     Cu1266   2.024       .  S
O1264     Cu1266   2.006       .  S
C1267      C1297   1.465       .  S
C1268      C1298   1.467       .  S
C1269      C1582   1.475       .  S
O1271     Cu1279   2.034       .  S
O1271      C1281   1.283       .  A
O1272     Cu1279   2.029       .  S
O1272      C1282   1.280       .  A
O1273     Cu1279   1.995   1_655  S
O1273      C1283   1.274       .  A
O1274      C1284   1.275       .  A
O1275      C1284   1.280       .  A
O1276     Cu1280   2.013   1_655  S
O1276      C1283   1.280       .  A
O1277     Cu1280   1.997       .  S
O1277      C1282   1.274       .  A
O1278     Cu1280   1.992       .  S
O1278      C1281   1.273       .  A
Cu1279    Cu1280   2.377       .  S
C1281      C1577   1.478       .  S
C1283      C1309   1.462       .  S
C1284      C1310   1.466       .  S
O1285     Cu1293   2.009       .  S
O1286     Cu1293   2.013       .  S
O1287     Cu1293   2.002       .  S
O1288     Cu1293   2.005       .  S
O1289     Cu1294   2.013       .  S
O1289      C1298   1.278       .  A
O1290     Cu1294   2.009       .  S
O1290      C1297   1.278       .  A
O1291     Cu1294   2.016       .  S
O1291      C1296   1.277       .  A
O1292     Cu1294   2.013       .  S
O1292      C1295   1.278       .  A
C1296      C1573   1.481       .  S
O1299     Cu1307   1.994       .  S
O1299      C1309   1.275       .  A
O1300     Cu1307   1.999       .  S
O1300      C1310   1.275       .  A
O1301     Cu1307   2.021       .  S
O1301      C1311   1.278       .  A
O1302     Cu1307   2.028       .  S
O1302      C1312   1.282       .  A
O1303     Cu1308   1.997       .  S
O1303      C1312   1.274       .  A
O1304     Cu1308   1.998       .  S
O1304      C1311   1.275       .  A
O1305     Cu1308   2.020       .  S
O1305      C1310   1.280       .  A
O1306     Cu1308   2.013       .  S
O1306      C1309   1.279       .  A
Cu1307    Cu1308   2.377       .  S
C1312      C1569   1.478       .  S
O1313      C1323   1.279       .  A
O1314     Cu1321   2.022       .  S
O1314      C1324   1.280       .  A
O1315     Cu1321   1.995       .  S
O1315      C1325   1.277       .  A
O1316     Cu1321   1.992       .  S
O1316      C1326   1.274       .  A
O1317     Cu1322   2.033       .  S
O1318     Cu1322   2.030       .  S
O1319     Cu1322   1.992       .  S
C1323      C1354   1.465       .  S
C1324      C1353   1.465       .  S
C1325      C1581   1.481       .  S
C1326      C1566   1.477       .  S
O1327     Cu1335   2.042       .  S
O1327      C1337   1.284       .  A
O1328     Cu1335   2.036       .  S
O1328      C1338   1.282       .  A
O1329     Cu1335   2.003       .  S
O1329      C1339   1.276       .  A
O1330      C1340   1.274       .  A
O1331      C1340   1.280       .  A
O1332     Cu1336   2.012       .  S
O1332      C1339   1.279       .  A
O1333     Cu1336   1.986       .  S
O1333      C1338   1.273       .  A
O1334     Cu1336   1.985       .  S
O1334      C1337   1.272       .  A
Cu1335    Cu1336   2.376       .  S
C1337      C1578   1.477   1_655  S
C1338      C1561   1.474       .  S
C1339      C1368   1.466       .  S
C1340      C1367   1.465       .  S
O1341     Cu1349   1.988       .  S
O1342     Cu1349   1.986       .  S
O1343     Cu1349   2.005       .  S
O1344     Cu1349   2.007       .  S
O1345     Cu1350   2.005       .  S
O1345      C1354   1.276       .  A
O1346     Cu1350   2.006       .  S
O1346      C1353   1.276       .  A
O1347     Cu1350   2.041       .  S
O1347      C1352   1.283       .  A
O1348     Cu1350   2.035       .  S
O1348      C1351   1.282       .  A
C1351      C1574   1.475       .  S
C1352      C1557   1.478       .  S
O1355     Cu1363   1.990       .  S
O1355      C1365   1.273       .  A
O1356     Cu1363   1.994       .  S
O1356      C1366   1.277       .  A
O1357     Cu1363   2.009       .  S
O1357      C1367   1.279       .  A
O1358     Cu1363   2.013       .  S
O1358      C1368   1.279       .  A
O1359     Cu1364   2.003       .  S
O1359      C1368   1.276       .  A
O1360     Cu1364   2.004       .  S
O1360      C1367   1.276       .  A
O1361     Cu1364   2.031       .  S
O1361      C1366   1.280       .  A
O1362     Cu1364   2.033       .  S
O1362      C1365   1.282       .  A
Cu1363    Cu1364   2.375       .  S
C1365      C1570   1.476       .  S
C1366      C1553   1.481       .  S
O1369     Cu1377   2.014       .  S
O1370     Cu1377   2.017   1_554  S
O1371     Cu1377   1.999   1_565  S
O1373      C1382   1.277       .  A
O1374     Cu1378   2.005   1_565  S
O1374      C1381   1.277       .  A
O1375     Cu1378   2.013   1_554  S
O1375      C1380   1.278       .  A
O1376     Cu1378   2.012       .  S
O1376      C1379   1.279       .  A
C1380      C1597   1.477       .  S
C1381      C1393   1.465       .  S
C1382      C1394   1.465       .  S
O1383     Cu1391   2.007       .  S
O1383      C1393   1.277       .  A
O1384     Cu1391   2.005       .  S
O1384      C1394   1.277       .  A
O1385     Cu1391   2.011   1_554  S
O1385      C1395   1.277       .  A
O1386     Cu1391   2.009       .  S
O1386      C1396   1.279       .  A
O1387     Cu1392   2.002       .  S
O1388     Cu1392   2.002   1_554  S
O1389     Cu1392   2.001       .  S
O1390     Cu1392   2.001       .  S
C1395      C1594   1.476       .  S
C1396      C1545   1.474   1_655  S
O1397     Cu1405   2.020       .  S
O1397      C1407   1.281       .  A
O1398      C1408   1.281       .  A
O1399     Cu1405   1.983       .  S
O1399      C1409   1.275       .  A
O1400     Cu1405   1.981   1_554  S
O1400      C1410   1.272       .  A
O1401     Cu1406   2.038   1_554  S
O1401      C1410   1.284       .  A
O1402     Cu1406   2.036       .  S
O1402      C1409   1.281       .  A
O1403      C1408   1.274       .  A
O1404     Cu1406   1.996       .  S
O1404      C1407   1.274       .  A
Cu1405    Cu1406   2.376       .  S
C1407      C1421   1.466       .  S
C1408      C1422   1.465       .  S
C1409      C1541   1.481       .  S
C1410      C1590   1.474       .  S
O1411     Cu1419   1.995       .  S
O1411      C1421   1.274       .  A
O1412     Cu1419   1.997       .  S
O1412      C1422   1.274       .  A
O1413     Cu1419   2.036   1_554  S
O1413      C1423   1.283       .  A
O1414     Cu1419   2.031       .  S
O1414      C1424   1.283       .  A
O1415     Cu1420   1.991       .  S
O1415      C1424   1.273       .  A
O1416     Cu1420   1.986   1_554  S
O1416      C1423   1.272       .  A
O1417     Cu1420   2.016       .  S
O1417      C1422   1.280       .  A
O1418     Cu1420   2.018       .  S
O1418      C1421   1.281       .  A
Cu1419    Cu1420   2.376       .  S
C1423      C1586   1.475       .  S
C1424      C1537   1.476       .  S
O1425     Cu1433   2.012       .  S
O1426     Cu1433   2.012       .  S
O1427     Cu1433   2.008   1_565  S
O1429      C1438   1.279       .  A
O1430     Cu1434   2.011   1_565  S
O1430      C1437   1.278       .  A
O1431     Cu1434   2.004       .  S
O1431      C1436   1.275       .  A
O1432     Cu1434   2.001       .  S
O1432      C1435   1.277       .  A
C1435      C1550   1.475       .  S
C1436      C1491   1.459       .  S
C1437      C1450   1.465       .  S
C1438      C1449   1.465       .  S
O1439     Cu1447   2.006       .  S
O1439      C1449   1.277       .  A
O1440     Cu1447   2.004       .  S
O1440      C1450   1.277       .  A
O1441     Cu1447   2.011       .  S
O1441      C1451   1.279       .  A
O1442     Cu1447   2.013       .  S
O1442      C1452   1.277       .  A
O1443     Cu1448   2.006       .  S
O1444     Cu1448   2.008       .  S
O1445     Cu1448   2.008       .  S
O1446     Cu1448   2.006       .  S
C1451      C1546   1.476       .  S
O1453     Cu1461   2.014       .  S
O1453      C1463   1.277       .  A
O1454     Cu1461   2.014       .  S
O1454      C1464   1.277       .  A
O1455      C1465   1.279       .  A
O1456     Cu1461   2.010       .  S
O1456      C1466   1.279       .  A
O1457     Cu1462   1.994       .  S
O1457      C1466   1.275       .  A
O1458      C1465   1.276       .  A
O1459     Cu1462   2.012       .  S
O1459      C1464   1.277       .  A
O1460     Cu1462   2.010       .  S
O1460      C1463   1.278       .  A
Cu1461    Cu1462   2.377       .  S
C1463      C1542   1.474       .  S
C1464      C1521   1.462       .  S
C1465      C1479   1.467       .  S
C1466      C1480   1.462       .  S
O1467     Cu1475   1.998       .  S
O1467      C1477   1.274       .  A
O1468     Cu1475   2.001       .  S
O1468      C1478   1.275       .  A
O1469     Cu1475   2.014       .  S
O1469      C1479   1.279       .  A
O1470     Cu1475   2.009       .  S
O1470      C1480   1.279       .  A
O1471     Cu1476   1.998       .  S
O1471      C1480   1.275       .  A
O1472     Cu1476   2.003       .  S
O1472      C1479   1.276       .  A
O1473     Cu1476   2.027       .  S
O1473      C1478   1.280       .  A
O1474     Cu1476   2.026       .  S
O1474      C1477   1.282       .  A
Cu1475    Cu1476   2.377       .  S
C1477      C1538   1.477       .  S
C1478      C1536   1.463       .  S
O1481     Cu1489   2.024       .  S
O1482     Cu1489   2.031       .  S
O1484     Cu1489   2.004       .  S
O1485     Cu1490   2.016       .  S
O1485      C1494   1.280       .  A
O1486      C1493   1.280       .  A
O1487     Cu1490   1.993       .  S
O1487      C1492   1.274       .  A
O1488     Cu1490   1.995       .  S
O1488      C1491   1.274   1_565  A
C1492      C1565   1.477       .  S
C1493      C1520   1.465       .  S
C1494      C1519   1.467       .  S
O1495      C1505   1.276       .  A
O1496     Cu1503   2.011       .  S
O1496      C1506   1.278       .  A
O1497     Cu1503   2.015       .  S
O1498      C1508   1.276       .  A
O1499     Cu1504   2.007       .  S
O1499      C1508   1.277       .  A
O1500     Cu1504   2.011       .  S
O1500      C1507   1.276       .  A
O1501      C1506   1.278       .  A
O1502     Cu1504   2.009       .  S
O1502      C1505   1.278       .  A
C1505      C1534   1.463       .  S
C1506      C1533   1.467       .  S
C1507      C1562   1.479       .  S
O1509     Cu1517   1.996       .  S
O1509      C1519   1.275       .  A
O1510     Cu1517   1.994       .  S
O1510      C1520   1.274       .  A
O1511     Cu1517   2.031       .  S
O1511      C1521   1.280       .  A
O1512     Cu1517   2.037       .  S
O1512      C1522   1.284   1_565  A
O1513     Cu1518   1.994       .  S
O1514     Cu1518   1.997       .  S
O1515     Cu1518   2.020       .  S
O1516     Cu1518   2.021       .  S
C1522      C1558   1.480       .  S
O1523     Cu1531   2.014       .  S
O1523      C1533   1.278       .  A
O1524     Cu1531   2.005       .  S
O1524      C1534   1.278       .  A
O1525     Cu1531   2.020       .  S
O1525      C1535   1.279       .  A
O1526     Cu1531   2.023       .  S
O1526      C1536   1.279       .  A
O1527     Cu1532   2.006       .  S
O1527      C1536   1.276       .  A
O1528     Cu1532   2.005       .  S
O1528      C1535   1.277       .  A
O1529     Cu1532   2.003       .  S
O1529      C1534   1.277       .  A
O1530     Cu1532   2.007       .  S
O1530      C1533   1.277       .  A
Cu1531    Cu1532   2.377       .  S
C1535      C1554   1.475       .  S
C1537      C1538   1.340       .  D
C1537      H1539   1.088       .  S
C1538      H1540   1.088       .  S
C1541      C1542   1.349       .  D
C1541      H1543   1.087       .  S
C1549      C1550   1.346       .  D
C1549      H1551   1.087       .  S
C1553      C1554   1.347       .  D
C1553      H1555   1.086       .  S
C1554      H1556   1.087       .  S
C1561      C1562   1.341       .  D
C1562      H1564   1.088       .  S
C1565      H1567   1.086       .  S
C1569      C1570   1.340       .  D
C1569      H1571   1.086       .  S
C1570      H1572   1.086       .  S
C1573      C1574   1.343       .  D
C1574      H1576   1.089       .  S
C1577      C1578   1.339       .  D
C1577      H1579   1.086       .  S
C1581      C1582   1.347       .  D
C1581      H1583   1.086       .  S
C1585      C1586   1.338       .  D
C1585      H1587   1.086       .  S
C1586      H1588   1.086       .  S
C1593      C1594   1.344   1_455  D
C1593      H1595   1.086       .  S
C1597      C1598   1.345   1_655  D
C1598      H1600   1.088       .  S
