geometry optimzed in LAMMPS
_audit_creation_date              2020-11-30 
_audit_creation_method            'lammps2cif' 
_symmetry_space_group_name_H-M    'P1' 
_symmetry_Int_Tables_number       1 
_symmetry_cell_setting            triclinic 
loop_ 
_symmetry_equiv_pos_as_xyz 
  x,y,z 
_cell_length_a                    44.63150071 
_cell_length_b                    44.60667576608278 
_cell_length_c                    42.926195574375974 
_cell_angle_alpha                 89.99609358604197 
_cell_angle_beta                  89.92311821651504 
_cell_angle_gamma                 120.16668784491296 
loop_ 
_atom_site_label 
_atom_site_type_symbol 
_atom_site_fract_x 
_atom_site_fract_y 
_atom_site_fract_z 
_atom_site_charge 
Zn1        Zn  0.32850922  0.20336841  0.01399437     1.49700
Zn2        Zn  0.37957860  0.17292065  0.01321982     1.49400
Zn3        Zn  0.29650260  0.12104975  0.01336181     1.49100
Zn4        Zn  0.33457125  0.16496370  0.95401806     1.49500
O5          O  0.33473627  0.16549062  0.99904265    -1.83100
O6          O  0.36696592  0.23381461  0.04293281    -0.73800
O7          O  0.37097249  0.13303808  0.03997093    -0.73600
O8          O  0.26580934  0.12949989  0.04149033    -0.73100
O9          O  0.40581554  0.21675273  0.03972278    -0.73800
O10         O  0.28357022  0.18571088  0.03812096    -0.73400
O11         O  0.31456164  0.09450961  0.03793884    -0.74000
O12         O  0.29012142  0.12645990  0.93686862    -0.73300
O13         O  0.40855183  0.17114681  0.97728528    -0.74100
O14         O  0.26497157  0.09241529  0.97771460    -0.73500
O15         O  0.37299322  0.15907189  0.93717485    -0.74000
O16         O  0.34126239  0.20963966  0.93773566    -0.73900
O17         O  0.33266507  0.23502645  0.97853421    -0.73700
C18         C  0.39619096  0.23736416  0.05025117     0.78100
C19         C  0.34516912  0.10372730  0.04717307     0.78600
C20         C  0.26237142  0.15538569  0.04826502     0.77600
C21         C  0.26527782  0.09912420  0.94879462     0.78000
C22         C  0.40105097  0.16318546  0.94866547     0.79100
C23         C  0.33938726  0.23471491  0.94970388     0.78100
Zn24       Zn  0.33224846  0.16592212  0.45456111     1.49700
Zn25       Zn  0.32700747  0.12213865  0.51458615     1.49400
Zn26       Zn  0.37635292  0.20459037  0.51572108     1.49100
Zn27       Zn  0.29443887  0.17237490  0.51395544     1.49500
O28         O  0.33267877  0.16618525  0.49992781    -1.83100
O29         O  0.33676468  0.12653584  0.43722733    -0.73800
O30         O  0.36684131  0.13061158  0.54216057    -0.73600
O31         O  0.40393177  0.23657232  0.47995569    -0.73100
O32         O  0.32928823  0.09357256  0.47868790    -0.73800
O33         O  0.37126149  0.21065633  0.43843395    -0.73400
O34         O  0.40416718  0.18726184  0.54013217    -0.74000
O35         O  0.31095769  0.21700850  0.53821533    -0.73300
O36         O  0.28236008  0.09551193  0.53943468    -0.74100
O37         O  0.36683539  0.23432455  0.54478129    -0.73500
O38         O  0.26349621  0.13317368  0.54142717    -0.74000
O39         O  0.26256267  0.16797887  0.47897390    -0.73900
O40         O  0.28785913  0.16024751  0.43762484    -0.73700
C41         C  0.33455632  0.09956103  0.44955668     0.78100
C42         C  0.39585097  0.15684374  0.54945893     0.78600
C43         C  0.39778590  0.23601438  0.45084962     0.77600
C44         C  0.34050504  0.23751141  0.55005416     0.78000
C45         C  0.26050805  0.10414713  0.54855658     0.79100
C46         C  0.26278023  0.16168869  0.45011070     0.78100
N47         N  0.40617797  0.44814474  0.75140110    -0.35600
N48         N  0.43337984  0.99997453  0.79950790    -0.56200
N49         N  0.45866980  0.05162644  0.75088049    -0.35600
N50         N  0.43063675  0.99986750  0.70277143    -0.56200
C51         C  0.38973035  0.42945319  0.77704508     0.28000
C52         C  0.38839842  0.42922267  0.72636341     0.28000
C53         C  0.46136135  0.07059295  0.77636813     0.28000
C54         C  0.46025967  0.07060303  0.72572816     0.28000
C55         C  0.42586791  0.47198812  0.81706221     0.36600
C56         C  0.45419145  0.02807885  0.81679557     0.36600
C57         C  0.42151101  0.47163853  0.68508471     0.36600
C58         C  0.45047397  0.02782305  0.68480118     0.36600
C59         C  0.36060209  0.39874217  0.76826091    -0.20900
C60         C  0.35978012  0.39858310  0.73614979    -0.20900
C61         C  0.46376628  0.10157724  0.76738193    -0.20900
C62         C  0.46309859  0.10159214  0.73530304    -0.20900
C63         C  0.44138474  0.48226114  0.84604153    -0.21900
C64         C  0.45918796  0.01798681  0.84595913    -0.21900
C65         C  0.43504696  0.48180487  0.65537021    -0.21900
C66         C  0.45389136  0.01737979  0.65526159    -0.21900
C67         C  0.40313778  0.43759881  0.80759225    -0.17300
C68         C  0.40012743  0.43716288  0.69527717    -0.17300
C69         C  0.46375334  0.06238993  0.69469396    -0.17300
C70         C  0.46635159  0.06244605  0.80696795    -0.17300
H71         H  0.34283406  0.37790043  0.78336875     0.15600
H72         H  0.34124113  0.37761670  0.72163341     0.15600
H73         H  0.46738247  0.12267844  0.78232977     0.15600
H74         H  0.46606470  0.12267581  0.72066545     0.15600
H75         H  0.43908386  0.46583329  0.86550862     0.13900
H76         H  0.47358850  0.03456317  0.86525855     0.13900
H77         H  0.43197490  0.46526634  0.63576068     0.13900
H78         H  0.46728437  0.03371979  0.63548766     0.13900
H79         H  0.43110393  0.46964143  0.75085961     0.27200
H80         H  0.46152743  0.02984396  0.75055984     0.27200
N81         N  0.09609665  0.04241289  0.74834614    -0.35600
N82         N  0.07094073  0.07032305  0.70120951    -0.56200
N83         N  0.04813584  0.09746487  0.75067497    -0.35600
N84         N  0.07405251  0.07041960  0.79796120    -0.56200
C85         C  0.11191075  0.04010391  0.72233905     0.28000
C86         C  0.11395602  0.04056042  0.77296395     0.28000
C87         C  0.04606495  0.11485146  0.72573120     0.28000
C88         C  0.04716271  0.11436363  0.77642249     0.28000
C89         C  0.07691442  0.04913592  0.68312256     0.36600
C90         C  0.05100649  0.07913479  0.68439919     0.36600
C91         C  0.08160369  0.04961808  0.81497007     0.36600
C92         C  0.05454598  0.07860183  0.81620231     0.36600
C93         C  0.14071384  0.03776707  0.73044708    -0.20900
C94         C  0.14200251  0.03804607  0.76253097    -0.20900
C95         C  0.04488809  0.14379449  0.73567869    -0.20900
C96         C  0.04555856  0.14347559  0.76779779    -0.20900
C97         C  0.06140884  0.04504995  0.65429680    -0.21900
C98         C  0.04497280  0.06418905  0.65509208    -0.21900
C99         C  0.06763117  0.04526212  0.84459854    -0.21900
C100        C  0.05038372  0.06367249  0.84537118    -0.21900
C101        C  0.09826608  0.03571004  0.69197128    -0.17300
C102        C  0.10267489  0.03649030  0.80418581    -0.17300
C103        C  0.04242173  0.10102665  0.80698509    -0.17300
C104        C  0.04018759  0.10217177  0.69489092    -0.17300
H105        H  0.15798242  0.03452680  0.71489094     0.15600
H106        H  0.16043477  0.03502960  0.77658679     0.15600
H107        H  0.04190946  0.16209114  0.72135126     0.15600
H108        H  0.04319076  0.16148502  0.78306638     0.15600
H109        H  0.06249847  0.03052203  0.63458358     0.13900
H110        H  0.03093501  0.06738516  0.63608470     0.13900
H111        H  0.07015169  0.03093397  0.86375855     0.13900
H112        H  0.03704147  0.06639635  0.86526705     0.13900
H113        H  0.07148293  0.03958187  0.74926410     0.27200
H114        H  0.04413744  0.07237777  0.75032605     0.27200
N115        N  0.44935175  0.40224475  0.75041348    -0.35600
N116        N  0.00220885  0.42766045  0.79741212    -0.56200
N117        N  0.05249532  0.45301231  0.74810410    -0.35600
N118        N  0.99961231  0.42674387  0.70076642    -0.56200
C119        C  0.43116556  0.38548789  0.77612575     0.28000
C120        C  0.42967350  0.38518022  0.72550300     0.28000
C121        C  0.07205020  0.45534965  0.77297946     0.28000
C122        C  0.07059243  0.45449958  0.72235007     0.28000
C123        C  0.47479284  0.42052811  0.81578270     0.36600
C124        C  0.03068300  0.44820662  0.81440936     0.36600
C125        C  0.47115609  0.41938129  0.68412477     0.36600
C126        C  0.02732450  0.44698070  0.68278538     0.36600
C127        C  0.39999015  0.35682518  0.76750314    -0.20900
C128        C  0.39904694  0.35663366  0.73539629    -0.20900
C129        C  0.10249607  0.45722503  0.76300022    -0.20900
C130        C  0.10158160  0.45670897  0.73087960    -0.20900
C131        C  0.48579369  0.43568666  0.84481871    -0.21900
C132        C  0.02123384  0.45307633  0.84391041    -0.21900
C133        C  0.48071386  0.43420298  0.65479192    -0.21900
C134        C  0.01666970  0.45191923  0.65387840    -0.21900
C135        C  0.44011495  0.39854388  0.80668801    -0.17300
C136        C  0.43697599  0.39777844  0.69469022    -0.17300
C137        C  0.06184821  0.45920373  0.69192657    -0.17300
C138        C  0.06483673  0.46058917  0.80384814    -0.17300
H139        H  0.37934449  0.33904481  0.78276944     0.15600
H140        H  0.37755979  0.33866821  0.72103162     0.15600
H141        H  0.12389016  0.46053140  0.77731983     0.15600
H142        H  0.12215882  0.45960492  0.71556347     0.15600
H143        H  0.46985320  0.43348244  0.86466525     0.13900
H144        H  0.03820711  0.46735462  0.86303331     0.13900
H145        H  0.46381412  0.43212491  0.63584528     0.13900
H146        H  0.03282680  0.46601207  0.63421724     0.13900
H147        H  0.47096735  0.42707859  0.75000604     0.27200
H148        H  0.03111578  0.45649208  0.74857621     0.27200
C149        C  0.48271101  0.12857108  0.63068280     0.03300
C150        C  0.01918606  0.14892844  0.63227445     0.03200
C151        C  0.03747751  0.14009854  0.65345942    -0.17300
C152        C  0.01998478  0.11162910  0.67350519     0.03300
C153        C  0.48332767  0.09151435  0.67245745     0.03200
C154        C  0.46518422  0.10016404  0.65103698    -0.17300
H155        H  0.43712192  0.08500117  0.65065044     0.05300
H156        H  0.06554330  0.15520321  0.65407368     0.05300
C157        C  0.12696422  0.48082977  0.62701374     0.03300
C158        C  0.14362893  0.01741708  0.62641900     0.03200
C159        C  0.13295578  0.03474319  0.64691374    -0.17300
C160        C  0.10690759  0.01630063  0.66891665     0.03300
C161        C  0.09016908  0.47962697  0.66949236     0.03200
C162        C  0.10043801  0.46230350  0.64870435    -0.17300
H163        H  0.08780463  0.43425230  0.64952875     0.05300
H164        H  0.14582746  0.06282234  0.64648616     0.05300
C165        C  0.37482418  0.35295818  0.87130069     0.03300
C166        C  0.35698141  0.37169375  0.87193314     0.03200
C167        C  0.36704898  0.39962664  0.85127202    -0.17300
C168        C  0.39400041  0.40871794  0.82985788     0.03300
C169        C  0.41176628  0.38996173  0.82936119     0.03200
C170        C  0.40211264  0.36241820  0.85009071    -0.17300
H171        H  0.41579918  0.34807177  0.84953230     0.05300
H172        H  0.35335598  0.41396416  0.85138909     0.05300
C173        C  0.35250773  0.37115676  0.63135752     0.03300
C174        C  0.36963423  0.35161875  0.63174296     0.03200
C175        C  0.39732266  0.36111586  0.65249566    -0.17300
C176        C  0.40762360  0.38881985  0.67318984     0.03300
C177        C  0.39029122  0.40800008  0.67310545     0.03200
C178        C  0.36315923  0.39914908  0.65207786    -0.17300
H179        H  0.34985635  0.41387052  0.65221209     0.05300
H180        H  0.41115086  0.34690940  0.65252539     0.05300
C181        C  0.13119022  0.47997777  0.86715655     0.03300
C182        C  0.15029442  0.01647648  0.86667455     0.03200
C183        C  0.14047995  0.03451194  0.84608585    -0.17300
C184        C  0.11244407  0.01662274  0.82570890     0.03300
C185        C  0.09428735  0.48043940  0.82548173     0.03200
C186        C  0.10336883  0.46232382  0.84646419    -0.17300
H187        H  0.08874903  0.43421212  0.84653179     0.05300
H188        H  0.15460925  0.06262168  0.84602815     0.05300
C189        C  0.02170774  0.14744824  0.87011593     0.03300
C190        C  0.48516472  0.12923966  0.86981424     0.03200
C191        C  0.46762038  0.10132443  0.84916437    -0.17300
C192        C  0.48588121  0.09139816  0.82909905     0.03300
C193        C  0.02230968  0.10965505  0.82929492     0.03200
C194        C  0.03988579  0.13742084  0.84984906    -0.17300
H195        H  0.06798546  0.15168128  0.84971386     0.05300
H196        H  0.43952799  0.08722793  0.84861995     0.05300
Zn197      Zn  0.12296753  0.32809940  0.51398035     1.49700
Zn198      Zn  0.17207898  0.29468186  0.51461443     1.49400
Zn199      Zn  0.16597004  0.33204984  0.45347265     1.49100
Zn200      Zn  0.20543050  0.37733045  0.51271652     1.49500
O201        O  0.16659502  0.33297399  0.49893130    -1.83100
O202        O  0.09567034  0.28436007  0.54004821    -0.73800
O203        O  0.17049001  0.26379573  0.47928330    -0.73600
O204        O  0.12640305  0.33634436  0.43623498    -0.73100
O205        O  0.13157566  0.26334293  0.54171284    -0.73800
O206        O  0.09480555  0.33071215  0.47828782    -0.73400
O207        O  0.16153564  0.28791750  0.43766885    -0.74000
O208        O  0.23632700  0.40460403  0.47656553    -0.73300
O209        O  0.21597040  0.31228347  0.54070695    -0.74100
O210        O  0.20993213  0.37099652  0.43578246    -0.73500
O211        O  0.23610809  0.36907357  0.54104670    -0.74000
O212        O  0.18896988  0.40557569  0.53684937    -0.73900
O213        O  0.13225188  0.36856106  0.54078691    -0.73700
C214        C  0.10329124  0.26183581  0.54931296     0.78100
C215        C  0.16444593  0.26369168  0.45024363     0.78600
C216        C  0.10025951  0.33545891  0.44907070     0.77600
C217        C  0.23524581  0.39800921  0.44756433     0.78000
C218        C  0.23818366  0.34285153  0.54957770     0.79100
C219        C  0.15896853  0.39757053  0.54689705     0.78100
Zn220      Zn  0.16826063  0.33408808  0.04602731     1.49700
Zn221      Zn  0.17422071  0.29510729  0.98699751     1.49400
Zn222      Zn  0.12390975  0.32764171  0.98692963     1.51900
Zn223      Zn  0.20688496  0.37741447  0.98577969     1.49500
O224        O  0.16832677  0.33358932  0.00102366    -1.83100
O225        O  0.16132126  0.28931450  0.06324629    -0.73800
O226        O  0.13452772  0.26462078  0.95957393    -0.73600
O227        O  0.09542552  0.33067986  0.02254120    -0.73100
O228        O  0.17072223  0.26390031  0.02302063    -0.73800
O229        O  0.13028702  0.34102352  0.06287797    -0.73400
O230        O  0.09675253  0.28323428  0.96199094    -0.74000
O231        O  0.18955224  0.40394520  0.96000939    -0.73300
O232        O  0.21877766  0.31159591  0.96186083    -0.74100
O233        O  0.13275498  0.36700613  0.95906657    -0.73500
O234        O  0.23797297  0.36812088  0.95878666    -0.74000
O235        O  0.23819666  0.40648330  0.02115676    -0.73900
O236        O  0.21331011  0.37237870  0.06206541    -0.73700
C237        C  0.16377208  0.26432465  0.05179450     0.78100
C238        C  0.10552090  0.26167048  0.95234818     0.78600
C239        C  0.10266496  0.33794079  0.05126533     0.77600
C240        C  0.15909059  0.39554696  0.95095218     0.78000
C241        C  0.24079790  0.34184894  0.95207106     0.79100
C242        C  0.23811766  0.39966076  0.05002136     0.78100
N243        N  0.05293616  0.09661049  0.25137646    -0.35600
N244        N  0.50265254  0.07148965  0.20209948    -0.56200
N245        N  0.44984432  0.04685494  0.24954677    -0.35600
N246        N  0.50021089  0.07277887  0.29880258    -0.56200
C247        C  0.07252134  0.11337343  0.22626556     0.28000
C248        C  0.07122943  0.11369960  0.27689059     0.28000
C249        C  0.43175742  0.04484897  0.22364564     0.28000
C250        C  0.43047019  0.04550071  0.27433005     0.28000
C251        C  0.03086496  0.07863252  0.18521627     0.36600
C252        C  0.47490981  0.05139236  0.18414364     0.36600
C253        C  0.02760570  0.07969977  0.31694904     0.36600
C254        C  0.47161108  0.05278820  0.31594306     0.36600
C255        C  0.10316702  0.14207004  0.23585443    -0.20900
C256        C  0.10236559  0.14224435  0.26796258    -0.20900
C257        C  0.40098060  0.04327409  0.23199003    -0.20900
C258        C  0.40016038  0.04366422  0.26410898    -0.20900
C259        C  0.02119895  0.06387706  0.15589177    -0.21900
C260        C  0.48560835  0.04660374  0.15517446    -0.21900
C261        C  0.01656477  0.06481734  0.34610743    -0.21900
C262        C  0.48085675  0.04764975  0.34541517    -0.21900
C263        C  0.06510082  0.10051837  0.19553937    -0.17300
C264        C  0.06233171  0.10105333  0.30758896    -0.17300
C265        C  0.43755064  0.04085805  0.30543422    -0.17300
C266        C  0.44037711  0.03949420  0.19329675    -0.17300
H267        H  0.12458188  0.15991690  0.22129663     0.15600
H268        H  0.12303679  0.16022259  0.28304269     0.15600
H269        H  0.38047617  0.04028407  0.21658868     0.15600
H270        H  0.37891699  0.04102582  0.27832056     0.15600
H271        H  0.03804454  0.06613770  0.13678490     0.13900
H272        H  0.46947375  0.03277241  0.13546827     0.13900
H273        H  0.03249433  0.06666114  0.36580752     0.13900
H274        H  0.46377255  0.03371309  0.36462736     0.13900
H275        H  0.03126259  0.07181948  0.25130557     0.27200
H276        H  0.47107045  0.04315723  0.25032277     0.27200
N277        N  0.45733149  0.40586602  0.25181072    -0.35600
N278        N  0.43235743  0.43120071  0.20241253    -0.56200
N279        N  0.40613338  0.45773632  0.24954476    -0.35600
N280        N  0.43049316  0.43184922  0.29902838    -0.56200
C281        C  0.45909463  0.38841497  0.22677992     0.28000
C282        C  0.45791311  0.38858954  0.27747022     0.28000
C283        C  0.38953804  0.45925648  0.22382268     0.28000
C284        C  0.38876433  0.45989471  0.27442231     0.28000
C285        C  0.45286023  0.42325636  0.18545202     0.36600
C286        C  0.42496282  0.45128084  0.18423072     0.36600
C287        C  0.45007924  0.42386844  0.31731377     0.36600
C288        C  0.42260957  0.45242766  0.31598611     0.36600
C289        C  0.45980515  0.35918073  0.23656458    -0.20900
C290        C  0.45907247  0.35929785  0.26868487    -0.20900
C291        C  0.36075410  0.46144195  0.23239548    -0.20900
C292        C  0.36025548  0.46183543  0.26447407    -0.20900
C293        C  0.45800412  0.43775022  0.15598378    -0.21900
C294        C  0.44022147  0.45558201  0.15520392    -0.21900
C295        C  0.45410092  0.43882703  0.34642708    -0.21900
C296        C  0.43660817  0.45698796  0.34558779    -0.21900
C297        C  0.46448068  0.40088788  0.19586789    -0.17300
C298        C  0.46215069  0.40138575  0.30818852    -0.17300
C299        C  0.40086173  0.46478377  0.30535674    -0.17300
C300        C  0.40266458  0.46352254  0.19327173    -0.17300
H301        H  0.46227258  0.34066274  0.22210262     0.15600
H302        H  0.46089528  0.34090415  0.28386191     0.15600
H303        H  0.34303513  0.46424756  0.21712724     0.15600
H304        H  0.34205424  0.46498237  0.27880602     0.15600
H305        H  0.47222504  0.43498499  0.13684885     0.13900
H306        H  0.43802534  0.46929964  0.13536166     0.13900
H307        H  0.46738745  0.43617860  0.36636451     0.13900
H308        H  0.43373561  0.47107412  0.36476622     0.13900
H309        H  0.46138261  0.43098632  0.25148910     0.27200
H310        H  0.43094233  0.46104353  0.25005338     0.27200
C311        C  0.36940916  0.01905998  0.36800779     0.03300
C312        C  0.35186066  0.48256726  0.36780559     0.03200
C313        C  0.36254213  0.46534808  0.34723317    -0.17300
C314        C  0.39050460  0.48401960  0.32697363     0.03300
C315        C  0.40796709  0.02048313  0.32696846     0.03200
C316        C  0.39718151  0.03777387  0.34741169    -0.17300
H317        H  0.41041391  0.06586442  0.34725195     0.05300
H318        H  0.34901537  0.43724215  0.34696529     0.05300
N319        N  0.09699738  0.05123630  0.25178430    -0.35600
N320        N  0.07023996  0.49945558  0.29962402    -0.56200
N321        N  0.04646593  0.44799833  0.25141986    -0.35600
N322        N  0.07421279  0.49990923  0.20294052    -0.56200
C323        C  0.11294267  0.06992053  0.27747622     0.28000
C324        C  0.11499530  0.07032076  0.22686962     0.28000
C325        C  0.04340209  0.42887532  0.27692254     0.28000
C326        C  0.04468093  0.42902060  0.22624392     0.28000
C327        C  0.07688729  0.02705644  0.31735786     0.36600
C328        C  0.04997013  0.47132295  0.31713445     0.36600
C329        C  0.08218778  0.02801933  0.18562862     0.36600
C330        C  0.05413789  0.47182351  0.18526299     0.36600
C331        C  0.14206233  0.10079558  0.26889413    -0.20900
C332        C  0.14333769  0.10106553  0.23679244    -0.20900
C333        C  0.04066658  0.39775722  0.26790786    -0.20900
C334        C  0.04142300  0.39782769  0.23579328    -0.20900
C335        C  0.06146994  0.01666430  0.34640192    -0.21900
C336        C  0.04458151  0.48128553  0.34621543    -0.21900
C337        C  0.06812132  0.01790672  0.15612888    -0.21900
C338        C  0.05020885  0.48207566  0.15579784    -0.21900
C339        C  0.09903488  0.06151577  0.30783484    -0.17300
C340        C  0.10341149  0.06248945  0.19581627    -0.17300
C341        C  0.04081990  0.43726930  0.19532739    -0.17300
C342        C  0.03818008  0.43702546  0.30748763    -0.17300
H343        H  0.15947186  0.12166953  0.28410727     0.15600
H344        H  0.16190133  0.12218686  0.22237005     0.15600
H345        H  0.03660731  0.37648084  0.28284454     0.15600
H346        H  0.03806150  0.37662072  0.22112594     0.15600
H347        H  0.06322465  0.03300750  0.36574946     0.13900
H348        H  0.03046904  0.46468861  0.36563927     0.13900
H349        H  0.07080865  0.03447515  0.13665077     0.13900
H350        H  0.03636996  0.46558925  0.13626865     0.13900
H351        H  0.07211428  0.02963176  0.25112897     0.27200
H352        H  0.04367770  0.46982690  0.25102087     0.27200
C353        C  0.35650754  0.48240070  0.12880365     0.03300
C354        C  0.37441295  0.01939534  0.12943667     0.03200
C355        C  0.40238096  0.03735017  0.14993461    -0.17300
C356        C  0.41179431  0.01951683  0.17087550     0.03300
C357        C  0.39375912  0.48298063  0.17063156     0.03200
C358        C  0.36630208  0.46474204  0.14981805    -0.17300
H359        H  0.35229528  0.43663137  0.15018604     0.05300
H360        H  0.41652697  0.06546804  0.15005200     0.05300
C361        C  0.14435638  0.12542476  0.37292019     0.03300
C362        C  0.12741390  0.14493564  0.37254495     0.03200
C363        C  0.10050144  0.13647783  0.35125008    -0.17300
C364        C  0.09066219  0.10920593  0.33010188     0.03300
C365        C  0.10802022  0.09000214  0.33033109     0.03200
C366        C  0.13440564  0.09803514  0.35195153    -0.17300
H367        H  0.14785088  0.08344666  0.35190839     0.05300
H368        H  0.08749288  0.15147732  0.35082783     0.05300
C369        C  0.15020633  0.12915792  0.13212687     0.03300
C370        C  0.13186516  0.14749711  0.13210924     0.03200
C371        C  0.10420034  0.13757826  0.15304534    -0.17300
C372        C  0.09446200  0.10996334  0.17378880     0.03300
C373        C  0.11273150  0.09169566  0.17383337     0.03200
C374        C  0.14023849  0.10139177  0.15300934    -0.17300
H375        H  0.15420004  0.08731578  0.15326251     0.05300
H376        H  0.08996765  0.15138283  0.15314696     0.05300
C377        C  0.48105914  0.35450347  0.37232295     0.03300
C378        C  0.01746303  0.37090138  0.37133045     0.03200
C379        C  0.03567848  0.39816597  0.35025598    -0.17300
C380        C  0.01802131  0.40829617  0.32972222     0.03300
C381        C  0.48155140  0.39205873  0.33070978     0.03200
C382        C  0.46335595  0.36495241  0.35197915    -0.17300
H383        H  0.43527412  0.35150643  0.35229462     0.05300
H384        H  0.06374437  0.41127623  0.34950782     0.05300
C385        C  0.01869497  0.37028246  0.13170062     0.03300
C386        C  0.48192131  0.35255038  0.13211373     0.03200
C387        C  0.46488713  0.36311826  0.15323548    -0.17300
C388        C  0.48356550  0.39058933  0.17395301     0.03300
C389        C  0.02021364  0.40824290  0.17341666     0.03200
C390        C  0.03732975  0.39790870  0.15245229    -0.17300
H391        H  0.06542378  0.41148422  0.15232519     0.05300
H392        H  0.43680729  0.34957338  0.15389630     0.05300
C393        C  0.14880546  0.20930750  0.12399699    -0.20300
C394        C  0.14094772  0.17731090  0.11105280    -0.08300
C395        C  0.14119832  0.17415583  0.07846251     0.30500
C396        C  0.14968096  0.20278859  0.05932821    -0.20300
C397        C  0.15735967  0.23485373  0.07228886    -0.08400
C398        C  0.15688993  0.23777992  0.10497415     0.30500
F399        F  0.16427652  0.26813993  0.11872231    -0.18900
H400        H  0.14875345  0.21224178  0.14905121     0.18900
H401        H  0.14927674  0.19956784  0.03429739     0.18900
F402        F  0.13225147  0.14319891  0.06510627    -0.18900
C403        C  0.06020998  0.34932399  0.12337345    -0.20300
C404        C  0.03855116  0.36039539  0.11055640    -0.08300
C405        C  0.03698628  0.36288651  0.07802217     0.30500
C406        C  0.05701032  0.35444144  0.05870679    -0.20300
C407        C  0.07924185  0.34389714  0.07157570    -0.08400
C408        C  0.08036194  0.34113515  0.10420936     0.30500
F409        F  0.10090796  0.33047836  0.11771470    -0.18900
H410        H  0.06157617  0.34715295  0.14840877     0.18900
H411        H  0.05596336  0.35722483  0.03372984     0.18900
F412        F  0.51673535  0.37424966  0.06518342    -0.18900
C413        C  0.30063287  0.44494998  0.05659441    -0.20300
C414        C  0.26796045  0.42287645  0.06994984    -0.08300
C415        C  0.26478757  0.42118039  0.10266256     0.30500
C416        C  0.29380014  0.44035255  0.12142504    -0.20300
C417        C  0.32641931  0.46193510  0.10810804    -0.08400
C418        C  0.32970014  0.46421957  0.07547959     0.30500
F419        F  0.36076396  0.98518140  0.06273321    -0.18900
H420        H  0.30390979  0.44648612  0.03152985     0.18900
H421        H  0.29077491  0.43868415  0.14652349     0.18900
F422        F  0.23361296  0.40109604  0.11662762    -0.18900
C423        C  0.14297273  0.20061375  0.44402767    -0.20300
C424        C  0.15862197  0.23392849  0.43084420    -0.08300
C425        C  0.16502887  0.23776954  0.39854003     0.30500
C426        C  0.15522008  0.20866821  0.37984299    -0.20300
C427        C  0.13867610  0.17539488  0.39295189    -0.08400
C428        C  0.13258282  0.17149395  0.42519524     0.30500
F429        F  0.11504449  0.13950995  0.43823533    -0.18900
H430        H  0.13714175  0.19694975  0.46871139     0.18900
H431        H  0.16015822  0.21200201  0.35500379     0.18900
F432        F  0.18052308  0.26958897  0.38500010    -0.18900
C433        C  0.04894109  0.37621481  0.42069481    -0.20300
C434        C  0.03723743  0.36030306  0.39164241    -0.08300
C435        C  0.04558850  0.33539010  0.38166526     0.30500
C436        C  0.06577881  0.32683203  0.40056788    -0.20300
C437        C  0.07701861  0.34238547  0.42992592    -0.08400
C438        C  0.06823910  0.36700269  0.43994112     0.30500
F439        F  0.07990805  0.38348044  0.46765028    -0.18900
H440        H  0.04338352  0.39606253  0.42831488     0.18900
H441        H  0.07265414  0.30811218  0.39233933     0.18900
F442        F  0.03471263  0.31989138  0.35347362    -0.18900
C443        C  0.28848071  0.44380909  0.37591429    -0.20300
C444        C  0.32195647  0.46178324  0.38844613    -0.08300
C445        C  0.32674164  0.45940150  0.42044984     0.30500
C446        C  0.29822975  0.43970546  0.43976250    -0.20300
C447        C  0.26462417  0.42132464  0.42729228    -0.08400
C448        C  0.25996750  0.42357795  0.39509218     0.30500
F449        F  0.22790009  0.40641098  0.38217393    -0.18900
H450        H  0.28451596  0.44539915  0.35121134     0.18900
H451        H  0.30257773  0.43779382  0.46432059     0.18900
F452        F  0.35907517  0.47511899  0.43279006    -0.18900
C453        C  0.08574358  0.20268983  0.93187442    -0.20300
C454        C  0.08204401  0.23215884  0.93239441    -0.08300
C455        C  0.05733086  0.23329104  0.91284126     0.30500
C456        C  0.03767770  0.20578017  0.89243223    -0.20300
C457        C  0.04191390  0.17660052  0.89177945    -0.08400
C458        C  0.06585434  0.17516914  0.91194375     0.30500
F459        F  0.06975009  0.14688176  0.91256335    -0.18900
H460        H  0.10420417  0.20090337  0.94698992     0.18900
H461        H  0.01945423  0.20739763  0.87687791     0.18900
F462        F  0.05307813  0.26135956  0.91258051    -0.18900
C463        C  0.17215519  0.46264386  0.88979512    -0.20300
C464        C  0.13919121  0.45946717  0.88931207    -0.08300
C465        C  0.11355811  0.43628310  0.90991200     0.30500
C466        C  0.12058090  0.41616048  0.93016774    -0.20300
C467        C  0.15339144  0.41893655  0.93054641    -0.08400
C468        C  0.17939650  0.44281192  0.91044641     0.30500
F469        F  0.21130488  0.44606396  0.90988613    -0.18900
H470        H  0.19213938  0.48016358  0.87384726     0.18900
H471        H  0.10019590  0.39829098  0.94563913     0.18900
F472        F  0.08174705  0.43329012  0.91057429    -0.18900
C473        C  0.29331994  0.33014871  0.60990756    -0.20300
C474        C  0.32335741  0.36307489  0.60990009    -0.08300
C475        C  0.32533104  0.38872124  0.58964925     0.30500
C476        C  0.29763896  0.38166788  0.57006529    -0.20300
C477        C  0.26745019  0.34882058  0.56998679    -0.08400
C478        C  0.26562239  0.32291168  0.58998523     0.30500
F479        F  0.23674765  0.29105503  0.59107585    -0.18900
H480        H  0.29121399  0.31016905  0.62561318     0.18900
H481        H  0.29994485  0.40202341  0.55474255     0.18900
F482        F  0.35429477  0.42054565  0.58855234    -0.18900
C483        C  0.29757599  0.32973159  0.89292347    -0.20300
C484        C  0.32764818  0.36267972  0.89359272    -0.08300
C485        C  0.32945322  0.38758436  0.91463118     0.30500
C486        C  0.30132658  0.38013540  0.93385369    -0.20300
C487        C  0.27084068  0.34757105  0.93281782    -0.08400
C488        C  0.26940962  0.32205586  0.91254094     0.30500
F489        F  0.24040066  0.29035665  0.91068258    -0.18900
H490        H  0.29569163  0.31020936  0.87676487     0.18900
H491        H  0.30339427  0.40005276  0.94961710     0.18900
F492        F  0.35862878  0.41913841  0.91670326    -0.18900
C493        C  0.16086514  0.42313879  0.59855954    -0.20300
C494        C  0.15452585  0.42195592  0.56650832    -0.08300
C495        C  0.14023695  0.44113523  0.55410329     0.30500
C496        C  0.13204928  0.46103007  0.57375960    -0.20300
C497        C  0.13748003  0.46143909  0.60600032    -0.08400
C498        C  0.15225517  0.44262345  0.61826126     0.30500
F499        F  0.15810739  0.44298806  0.64931656    -0.18900
H500        H  0.17147294  0.40808810  0.60841326     0.18900
H501        H  0.12065058  0.47540462  0.56400690     0.18900
F502        F  0.13352782  0.43993995  0.52314823    -0.18900
C503        C  0.04454141  0.17133781  0.57982666    -0.20300
C504        C  0.03912854  0.17808529  0.61058774    -0.08300
C505        C  0.05358244  0.21256742  0.62070065     0.30500
C506        C  0.07307854  0.23995781  0.60010727    -0.20300
C507        C  0.07920566  0.23318341  0.56956316    -0.08400
C508        C  0.06482787  0.19868920  0.55951584     0.30500
F509        F  0.07063817  0.19154924  0.53012306    -0.18900
H510        H  0.03363921  0.14485017  0.57181682     0.18900
H511        H  0.08444884  0.26642893  0.60829298     0.18900
F512        F  0.55925677  0.21851722  0.65330841    -0.18900
C513        C  0.41681913  0.11806673  0.56947036    -0.20300
C514        C  0.41992284  0.15105832  0.56907998    -0.08300
C515        C  0.44497117  0.17720890  0.58831640     0.30500
C516        C  0.46551754  0.16994426  0.60811986    -0.20300
C517        C  0.46200446  0.13678252  0.60867883    -0.08400
C518        C  0.43768259  0.11102042  0.58882974     0.30500
F519        F  0.43417404  0.07897877  0.58806237    -0.18900
H520        H  0.39809865  0.09752190  0.55467249     0.18900
H521        H  0.48371575  0.19007013  0.62353682     0.18900
F522        F  0.44868703  0.20932364  0.58897047    -0.18900
C523        C  0.33355456  0.04613122  0.38051873    -0.20300
C524        C  0.35895797  0.03812499  0.38943924    -0.08300
C525        C  0.37461431  0.04860232  0.41878533     0.30500
C526        C  0.36494754  0.06686174  0.43898744    -0.20300
C527        C  0.34040570  0.07595511  0.42976919    -0.08400
C528        C  0.32456663  0.06530328  0.40039123     0.30500
F529        F  0.30049273  0.07345012  0.39098556    -0.18900
H530        H  0.32118453  0.03802730  0.35796621     0.18900
H531        H  0.37783930  0.07535198  0.46129298     0.18900
F532        F  0.40450918  0.54633855  0.42561079    -0.18900
C533        C  0.19868365  0.07918095  0.56303803    -0.20300
C534        C  0.23038158  0.08018143  0.56746106    -0.08300
C535        C  0.23305763  0.05955081  0.59075216     0.30500
C536        C  0.20452204  0.03877427  0.60968503    -0.20300
C537        C  0.17306954  0.03820624  0.60543618    -0.08400
C538        C  0.17015545  0.05825003  0.58179002     0.30500
F539        F  0.13970100  0.05740899  0.57681679    -0.18900
H540        H  0.19604595  0.09470602  0.54501214     0.18900
H541        H  0.20707754  0.02358847  0.62808567     0.18900
F542        F  0.26359413  0.06075947  0.59616895    -0.18900
C543        C  0.44006657  0.29927129  0.44415428    -0.20300
C544        C  0.42103121  0.26598660  0.43103615    -0.08300
C545        C  0.42242333  0.26219042  0.39855615     0.30500
C546        C  0.44226151  0.29113437  0.37976197    -0.20300
C547        C  0.46078735  0.32429498  0.39286848    -0.08400
C548        C  0.45948233  0.32828136  0.42520903     0.30500
F549        F  0.47592202  0.36028096  0.43830159    -0.18900
H550        H  0.43890000  0.30300550  0.46896513     0.18900
H551        H  0.44308280  0.28773943  0.35484275     0.18900
F552        F  0.40466784  0.23052628  0.38490547    -0.18900
C553        C  0.19917387  0.13017794  0.44176212    -0.20300
C554        C  0.23253605  0.15408392  0.43094771    -0.08300
C555        C  0.23669283  0.16819893  0.40093798     0.30500
C556        C  0.20770501  0.15914150  0.38236492    -0.20300
C557        C  0.17447721  0.13507984  0.39311244    -0.08400
C558        C  0.17033884  0.12004515  0.42265756     0.30500
F559        F  0.13859395  0.09517313  0.43270273    -0.18900
H560        H  0.19564901  0.11832332  0.46451480     0.18900
H561        H  0.21113098  0.17051947  0.35940581     0.18900
F562        F  0.26871516  0.19085440  0.38973404    -0.18900
C563        C  0.34618062  0.26198563  0.60294684    -0.20300
C564        C  0.34473742  0.26562582  0.57067647    -0.08300
C565        C  0.35040310  0.29719642  0.55835314     0.30500
C566        C  0.35821039  0.32509362  0.57820537    -0.20300
C567        C  0.35984110  0.32161949  0.61064022    -0.08400
C568        C  0.35342309  0.28961037  0.62284544     0.30500
F569        F  0.35433545  0.28512453  0.65404151    -0.18900
H570        H  0.34209471  0.23780278  0.61269276     0.18900
H571        H  0.36367597  0.34962819  0.56821368     0.18900
F572        F  0.34960883  0.30136769  0.52710108    -0.18900
C573        C  0.17444877  0.03551130  0.92026762    -0.20300
C574        C  0.17983447  0.03643154  0.88798230    -0.08300
C575        C  0.21353773  0.05617478  0.87607223     0.30500
C576        C  0.24129634  0.07566601  0.89612400    -0.20300
C577        C  0.23600044  0.07556769  0.92845269    -0.08400
C578        C  0.20226769  0.05479494  0.94044010     0.30500
F579        F  0.19587393  0.05427938  0.97141388    -0.18900
H580        H  0.14855326  0.02019947  0.92976005     0.18900
H581        H  0.26701159  0.09108384  0.88630248     0.18900
F582        F  0.21957489  0.05627929  0.84505538    -0.18900
C583        C  0.23513610  0.17666371  0.08697000    -0.20300
C584        C  0.23314790  0.14962752  0.06859980    -0.08300
C585        C  0.20353962  0.11641113  0.07094533     0.30500
C586        C  0.17682250  0.11042892  0.09137672    -0.20300
C587        C  0.17896060  0.13716809  0.11011095    -0.08400
C588        C  0.20851061  0.17044208  0.10792291     0.30500
F589        F  0.21220125  0.19655607  0.12670154    -0.18900
H590        H  0.25782883  0.20232944  0.08588232     0.18900
H591        H  0.15423163  0.08468550  0.09260431     0.18900
F592        F  0.20017221  0.08960724  0.05333728    -0.18900
C593        C  0.44179437  0.14832785  0.87696378    -0.20300
C594        C  0.46447921  0.13883005  0.89031916    -0.08300
C595        C  0.46711146  0.13855836  0.92294689     0.30500
C596        C  0.44754317  0.14796186  0.94178468    -0.20300
C597        C  0.42441764  0.15702735  0.92847180    -0.08400
C598        C  0.42190999  0.15731947  0.89572783     0.30500
F599        F  0.40025525  0.16627673  0.88174421    -0.18900
H600        H  0.43954826  0.14881829  0.85186239     0.18900
H601        H  0.44959164  0.14694582  0.96685563     0.18900
F602        F  0.48784919  0.12824422  0.93659938    -0.18900
C603        C  0.32558719  0.05651161  0.08695811    -0.20300
C604        C  0.35152886  0.08045247  0.06696364    -0.08300
C605        C  0.38451072  0.08349613  0.06734755     0.30500
C606        C  0.39138909  0.06330883  0.08757649    -0.20300
C607        C  0.36574921  0.03983384  0.10789611    -0.08400
C608        C  0.33273165  0.03665663  0.10763736     0.30500
F609        F  0.30833230  0.51501937  0.12782815    -0.18900
H610        H  0.30019663  0.05409451  0.08737873     0.18900
H611        H  0.41689593  0.06597083  0.08740370     0.18900
F612        F  0.41018102  0.10587996  0.04804447    -0.18900
C613        C  0.41466649  0.29567404  0.07249340    -0.20300
C614        C  0.41907687  0.26662366  0.07100654    -0.08300
C615        C  0.44457559  0.26598975  0.08982475     0.30500
C616        C  0.46492850  0.29385729  0.10974443    -0.20300
C617        C  0.46060237  0.32298580  0.11088555    -0.08400
C618        C  0.43519684  0.32355876  0.09202986     0.30500
F619        F  0.43056319  0.35140317  0.09212679    -0.18900
H620        H  0.39539830  0.29702342  0.05819194     0.18900
H621        H  0.48385029  0.29253789  0.12456067     0.18900
F622        F  0.44912221  0.23810655  0.08974105    -0.18900
C623        C  0.35671872  0.29704245  0.94320109    -0.20300
C624        C  0.34651085  0.26456526  0.92974678    -0.08300
C625        C  0.34554152  0.26157089  0.89703500     0.30500
C626        C  0.35470321  0.29048208  0.87837420    -0.20300
C627        C  0.36505447  0.32284004  0.89182161    -0.08400
C628        C  0.36624738  0.32607227  0.92441650     0.30500
F629        F  0.37753144  0.35741181  0.93801855    -0.18900
H630        H  0.35832403  0.30020757  0.96827091     0.18900
H631        H  0.35365237  0.28763929  0.85326498     0.18900
F632        F  0.33569251  0.23073520  0.88296371    -0.18900
Zn633      Zn  0.32861874  0.70322154  0.01398795     1.49700
Zn634      Zn  0.37966101  0.67277359  0.01347134     1.49400
Zn635      Zn  0.29651962  0.62090383  0.01344654     1.49100
Zn636      Zn  0.33476228  0.66470546  0.95425254     1.49500
O637        O  0.33483245  0.66530874  0.99922144    -1.83100
O638        O  0.36695417  0.73366004  0.04300761    -0.73800
O639        O  0.37095088  0.63280445  0.04010005    -0.73600
O640        O  0.26574287  0.62939329  0.04145029    -0.73100
O641        O  0.40589137  0.71671250  0.03985159    -0.73800
O642        O  0.28349269  0.68559660  0.03781913    -0.73400
O643        O  0.31453262  0.59425993  0.03786351    -0.74000
O644        O  0.29030877  0.62637635  0.93696156    -0.73300
O645        O  0.40872519  0.67093663  0.97765943    -0.74100
O646        O  0.26507336  0.59229775  0.97775934    -0.73500
O647        O  0.37295041  0.65845075  0.93767135    -0.74000
O648        O  0.34201045  0.70951889  0.93784028    -0.73900
O649        O  0.33318999  0.73495806  0.97845483    -0.73700
C650        C  0.39623483  0.73733148  0.05029943     0.78100
C651        C  0.34512948  0.60341569  0.04707837     0.78600
C652        C  0.26224026  0.65529701  0.04799419     0.77600
C653        C  0.26543788  0.59903253  0.94884240     0.78000
C654        C  0.40106961  0.66270202  0.94910956     0.79100
C655        C  0.34019537  0.73467091  0.94969527     0.78100
Zn656      Zn  0.33361339  0.66620130  0.45466444     1.49700
Zn657      Zn  0.32703120  0.62261802  0.51504054     1.49400
Zn658      Zn  0.37626269  0.70509518  0.51630948     1.49100
Zn659      Zn  0.29461890  0.67289758  0.51318124     1.49500
O660        O  0.33302581  0.66662429  0.49999923    -1.83100
O661        O  0.33864147  0.62688491  0.43812805    -0.73800
O662        O  0.36638745  0.63133655  0.54314470    -0.73600
O663        O  0.40426052  0.73738671  0.48099591    -0.73100
O664        O  0.32987599  0.59370978  0.47971422    -0.73800
O665        O  0.37298428  0.71096995  0.43886747    -0.73400
O666        O  0.40383385  0.68798032  0.54102944    -0.74000
O667        O  0.31072702  0.71766729  0.53728237    -0.73300
O668        O  0.28209349  0.59615797  0.53941046    -0.74100
O669        O  0.36623460  0.73435569  0.54529277    -0.73500
O670        O  0.26312866  0.63374062  0.54065934    -0.74000
O671        O  0.26355533  0.66827497  0.47741755    -0.73900
O672        O  0.28926206  0.65990483  0.43675800    -0.73700
C673        C  0.33589101  0.59978465  0.45067428     0.78100
C674        C  0.39532590  0.65759028  0.55051887     0.78600
C675        C  0.39890568  0.73657895  0.45172774     0.77600
C676        C  0.33994962  0.73777416  0.54988415     0.78000
C677        C  0.26008525  0.60475499  0.54811287     0.79100
C678        C  0.26398327  0.66144751  0.44869842     0.78100
N679        N  0.40620869  0.94821387  0.75148661    -0.35600
N680        N  0.43347850  0.49998357  0.79948404    -0.56200
N681        N  0.45797189  0.55153269  0.75100957    -0.35600
N682        N  0.42981976  0.49974670  0.70279766    -0.56200
C683        C  0.38963894  0.92952002  0.77709226     0.28000
C684        C  0.38843585  0.92938603  0.72641499     0.28000
C685        C  0.46089983  0.57050300  0.77655443     0.28000
C686        C  0.45916720  0.57043196  0.72595737     0.28000
C687        C  0.42567112  0.97197757  0.81714394     0.36600
C688        C  0.45437521  0.52807634  0.81675080     0.36600
C689        C  0.42216684  0.97164284  0.68517790     0.36600
C690        C  0.44937080  0.52780518  0.68485401     0.36600
C691        C  0.36043360  0.89890962  0.76826019    -0.20900
C692        C  0.35967956  0.89881700  0.73614905    -0.20900
C693        C  0.46301251  0.60139813  0.76771950    -0.20900
C694        C  0.46195261  0.60136587  0.73565472    -0.20900
C695        C  0.44103515  0.98225976  0.84617650    -0.21900
C696        C  0.45956571  0.51798315  0.84583347    -0.21900
C697        C  0.43593807  0.98163713  0.65551487    -0.21900
C698        C  0.45269240  0.51754156  0.65520418    -0.21900
C699        C  0.40300422  0.93757709  0.80764613    -0.17300
C700        C  0.40035817  0.93724070  0.69537607    -0.17300
C701        C  0.46257813  0.56230561  0.69489262    -0.17300
C702        C  0.46633790  0.56242343  0.80701656    -0.17300
H703        H  0.34256946  0.87808832  0.78333506     0.15600
H704        H  0.34111509  0.87790474  0.72160194     0.15600
H705        H  0.46672181  0.62248516  0.78273394     0.15600
H706        H  0.46467951  0.62240717  0.72109259     0.15600
H707        H  0.43866425  0.96583310  0.86567076     0.13900
H708        H  0.47406463  0.53455322  0.86510295     0.13900
H709        H  0.43277375  0.96498490  0.63597473     0.13900
H710        H  0.46586431  0.53399688  0.63543020     0.13900
H711        H  0.43120655  0.96960039  0.75099834     0.27200
H712        H  0.46101181  0.52986286  0.75051284     0.27200
N713        N  0.09631078  0.54273762  0.74805087    -0.35600
N714        N  0.06995549  0.56962789  0.70108086    -0.56200
N715        N  0.04755386  0.59703245  0.75061832    -0.35600
N716        N  0.07467559  0.57101744  0.79779496    -0.56200
C717        C  0.11187063  0.54030165  0.72191411     0.28000
C718        C  0.11446102  0.54111477  0.77254202     0.28000
C719        C  0.04507808  0.61412857  0.72563972     0.28000
C720        C  0.04682995  0.61414901  0.77630141     0.28000
C721        C  0.07605345  0.54854969  0.68296956     0.36600
C722        C  0.04972897  0.57815456  0.68438968     0.36600
C723        C  0.08247958  0.55037542  0.81477128     0.36600
C724        C  0.05517134  0.57910803  0.81614916     0.36600
C725        C  0.14082797  0.53813968  0.72981603    -0.20900
C726        C  0.14244701  0.53862256  0.76189842    -0.20900
C727        C  0.04386786  0.64308492  0.73549690    -0.20900
C728        C  0.04492815  0.64307156  0.76759912    -0.20900
C729        C  0.06025104  0.54418351  0.65425067    -0.21900
C730        C  0.04353736  0.56305999  0.65514255    -0.21900
C731        C  0.06872177  0.54608790  0.84448529    -0.21900
C732        C  0.05133549  0.56435459  0.84535533    -0.21900
C733        C  0.09785875  0.53558883  0.69164994    -0.17300
C734        C  0.10344773  0.53717935  0.80385006    -0.17300
C735        C  0.04259540  0.60116174  0.80694270    -0.17300
C736        C  0.03899236  0.60125672  0.69486776    -0.17300
H737        H  0.15796588  0.53484178  0.71413642     0.15600
H738        H  0.16105107  0.53574846  0.77582275     0.15600
H739        H  0.04062866  0.66119868  0.72113769     0.15600
H740        H  0.04265800  0.66116884  0.78282671     0.15600
H741        H  0.06141797  0.52974699  0.63450111     0.13900
H742        H  0.02930979  0.56607785  0.63620298     0.13900
H743        H  0.07138945  0.53180946  0.86361072     0.13900
H744        H  0.03801620  0.56700924  0.86530537     0.13900
H745        H  0.07166520  0.53980358  0.74918561     0.27200
H746        H  0.04371429  0.57200246  0.75040790     0.27200
N747        N  0.44943675  0.90227794  0.75032691    -0.35600
N748        N  0.00223767  0.92743301  0.79744231    -0.56200
N749        N  0.05256191  0.95258376  0.74819787    -0.35600
N750        N  0.99979685  0.92663745  0.70078545    -0.56200
C751        C  0.43114948  0.88559319  0.77601459     0.28000
C752        C  0.42974635  0.88527748  0.72539985     0.28000
C753        C  0.07204048  0.95470713  0.77306203     0.28000
C754        C  0.07070820  0.95424259  0.72243579     0.28000
C755        C  0.47479810  0.92033768  0.81575800     0.36600
C756        C  0.03073705  0.94781528  0.81445626     0.36600
C757        C  0.47139238  0.91925875  0.68407262     0.36600
C758        C  0.02753664  0.94695805  0.68286248     0.36600
C759        C  0.39989690  0.85704821  0.76736801    -0.20900
C760        C  0.39900895  0.85685342  0.73526721    -0.20900
C761        C  0.10248045  0.95658527  0.76305787    -0.20900
C762        C  0.10164729  0.95631583  0.73093461    -0.20900
C763        C  0.48579551  0.93546880  0.84480516    -0.21900
C764        C  0.02135186  0.95290759  0.84390565    -0.21900
C765        C  0.48112095  0.93409065  0.65476143    -0.21900
C766        C  0.01691441  0.95184147  0.65391746    -0.21900
C767        C  0.44011555  0.89861064  0.80657853    -0.17300
C768        C  0.43715257  0.89782116  0.69457640    -0.17300
C769        C  0.06205307  0.95923024  0.69207415    -0.17300
C770        C  0.06484393  0.95994702  0.80393134    -0.17300
H771        H  0.37917529  0.83934855  0.78261281     0.15600
H772        H  0.37749610  0.83896545  0.72088527     0.15600
H773        H  0.12384042  0.95978706  0.77736892     0.15600
H774        H  0.12225646  0.95930660  0.71561170     0.15600
H775        H  0.46984503  0.93349649  0.86456989     0.13900
H776        H  0.03835381  0.96710172  0.86303690     0.13900
H777        H  0.46433024  0.93207497  0.63574165     0.13900
H778        H  0.03310720  0.96601192  0.63429647     0.13900
H779        H  0.47116191  0.92704059  0.74995527     0.27200
H780        H  0.03124747  0.95616565  0.74870304     0.27200
C781        C  0.48154508  0.62900793  0.63161929     0.03300
C782        C  0.01869047  0.64885047  0.63260420     0.03200
C783        C  0.03680270  0.63935290  0.65334754    -0.17300
C784        C  0.01903845  0.61100442  0.67348346     0.03300
C785        C  0.48214866  0.59148461  0.67277968     0.03200
C786        C  0.46396996  0.60051680  0.65179797    -0.17300
H787        H  0.43589226  0.58554793  0.65153394     0.05300
H788        H  0.06489250  0.65392614  0.65365723     0.05300
C789        C  0.12757408  0.98092660  0.62756076     0.03300
C790        C  0.14292016  0.51732372  0.62574397     0.03200
C791        C  0.13231843  0.53462694  0.64636694    -0.17300
C792        C  0.10647964  0.51619701  0.66854934     0.03300
C793        C  0.09044712  0.97970765  0.66973262     0.03200
C794        C  0.10079439  0.96238882  0.64902411    -0.17300
H795        H  0.08804114  0.93432736  0.64976211     0.05300
H796        H  0.14510121  0.56269912  0.64590858     0.05300
C797        C  0.37503787  0.85281781  0.87122138     0.03300
C798        C  0.35705070  0.87141975  0.87190578     0.03200
C799        C  0.36696109  0.89935211  0.85126021    -0.17300
C800        C  0.39393078  0.90862115  0.82983318     0.03300
C801        C  0.41180052  0.88997067  0.82927149     0.03200
C802        C  0.40230221  0.86243283  0.84996256    -0.17300
H803        H  0.41613356  0.84822954  0.84935050     0.05300
H804        H  0.35317182  0.91359408  0.85144615     0.05300
C805        C  0.35185013  0.87072530  0.63211269     0.03300
C806        C  0.36919293  0.85140870  0.63212351     0.03200
C807        C  0.39726799  0.86115031  0.65247336    -0.17300
C808        C  0.40780182  0.88896575  0.67308337     0.03300
C809        C  0.39032754  0.90801123  0.67326832     0.03200
C810        C  0.36277011  0.89887249  0.65267374    -0.17300
H811        H  0.34937828  0.91350675  0.65299547     0.05300
H812        H  0.41117474  0.84702366  0.65228406     0.05300
C813        C  0.13149937  0.97984481  0.86699930     0.03300
C814        C  0.15054496  0.51661675  0.86652124     0.03200
C815        C  0.14120156  0.53482022  0.84564891    -0.17300
C816        C  0.11307567  0.51712845  0.82531483     0.03300
C817        C  0.09427015  0.97993591  0.82552037     0.03200
C818        C  0.10378924  0.96198411  0.84625857    -0.17300
H819        H  0.08955202  0.93386546  0.84617039     0.05300
H820        H  0.15570661  0.56292563  0.84540783     0.05300
C821        C  0.02174892  0.64733612  0.87025627     0.03300
C822        C  0.48506699  0.62911930  0.86986660     0.03200
C823        C  0.46756569  0.60112527  0.84930653    -0.17300
C824        C  0.48587005  0.59137493  0.82913293     0.03300
C825        C  0.02245384  0.60966872  0.82933098     0.03200
C826        C  0.03998189  0.63748027  0.84986609    -0.17300
H827        H  0.06807848  0.65190203  0.84962296     0.05300
H828        H  0.43946959  0.58683510  0.84891039     0.05300
Zn829      Zn  0.12307684  0.82826780  0.51474193     1.49700
Zn830      Zn  0.17169929  0.79435843  0.51459159     1.49400
Zn831      Zn  0.16584765  0.83248494  0.45373269     1.49100
Zn832      Zn  0.20558175  0.87704741  0.51308053     1.49500
O833        O  0.16650936  0.83292964  0.49923049    -1.83100
O834        O  0.09573883  0.78455971  0.54084453    -0.73800
O835        O  0.16969070  0.76371237  0.47887902    -0.73600
O836        O  0.12625615  0.83718294  0.43722281    -0.73100
O837        O  0.13104242  0.76283860  0.54143806    -0.73800
O838        O  0.09452227  0.83089323  0.47931877    -0.73400
O839        O  0.16086546  0.78814656  0.43737730    -0.74000
O840        O  0.23709388  0.90403396  0.47714857    -0.73300
O841        O  0.21543337  0.81146997  0.54104393    -0.74100
O842        O  0.20997491  0.87149300  0.43600073    -0.73500
O843        O  0.23549997  0.86825196  0.54179035    -0.74000
O844        O  0.18953393  0.90581020  0.53690733    -0.73900
O845        O  0.13292167  0.86871656  0.54176857    -0.73700
C846        C  0.10301963  0.76161277  0.54952487     0.78100
C847        C  0.16350920  0.76371311  0.44987490     0.78600
C848        C  0.09995558  0.83595420  0.45011173     0.77600
C849        C  0.23574463  0.89793423  0.44802987     0.78000
C850        C  0.23748316  0.84196672  0.55025454     0.79100
C851        C  0.15972082  0.89780442  0.54746433     0.78100
Zn852      Zn  0.16836433  0.83429567  0.04584688     1.49700
Zn853      Zn  0.17432643  0.79533496  0.98683555     1.49400
Zn854      Zn  0.12422558  0.82800402  0.98673364     1.51900
Zn855      Zn  0.20732677  0.87768752  0.98583003     1.49500
O856        O  0.16858689  0.83387670  0.00088049    -1.83100
O857        O  0.16097074  0.78934131  0.06298734    -0.73800
O858        O  0.13463237  0.76489699  0.95940079    -0.73600
O859        O  0.09580626  0.83141680  0.02222538    -0.73100
O860        O  0.17057438  0.76402180  0.02280157    -0.73800
O861        O  0.13063632  0.84163595  0.06253835    -0.73400
O862        O  0.09684405  0.78347483  0.96192380    -0.74000
O863        O  0.19022390  0.90428682  0.95992666    -0.73300
O864        O  0.21892898  0.81171787  0.96184617    -0.74100
O865        O  0.13340612  0.86737543  0.95882673    -0.73500
O866        O  0.23855795  0.86834450  0.95906161    -0.74000
O867        O  0.23829920  0.90675502  0.02136785    -0.73900
O868        O  0.21335355  0.87241385  0.06212399    -0.73700
C869        C  0.16340007  0.76434325  0.05152478     0.78100
C870        C  0.10557439  0.76188111  0.95227452     0.78600
C871        C  0.10310682  0.83876048  0.05092848     0.77600
C872        C  0.15979750  0.89590938  0.95079150     0.78000
C873        C  0.24118083  0.84197436  0.95225023     0.79100
C874        C  0.23810378  0.89983805  0.05022180     0.78100
N875        N  0.05298001  0.59689340  0.25129189    -0.35600
N876        N  0.50262516  0.57169195  0.20194034    -0.56200
N877        N  0.44968455  0.54721140  0.24933799    -0.35600
N878        N  0.49996778  0.57322662  0.29868555    -0.56200
C879        C  0.07263441  0.61365679  0.22621554     0.28000
C880        C  0.07120941  0.61395247  0.27683713     0.28000
C881        C  0.43159660  0.54506581  0.22338783     0.28000
C882        C  0.43019318  0.54568441  0.27409615     0.28000
C883        C  0.03101224  0.57902199  0.18514270     0.36600
C884        C  0.47488724  0.55166833  0.18395250     0.36600
C885        C  0.02752287  0.57990918  0.31680679     0.36600
C886        C  0.47135905  0.55325732  0.31581679     0.36600
C887        C  0.10325708  0.64234595  0.23585254    -0.20900
C888        C  0.10236955  0.64250295  0.26796571    -0.20900
C889        C  0.40069082  0.54324360  0.23167965    -0.20900
C890        C  0.39979435  0.54360670  0.26380742    -0.20900
C891        C  0.02136535  0.56420087  0.15584331    -0.21900
C892        C  0.48558476  0.54677866  0.15501946    -0.21900
C893        C  0.01643224  0.56485760  0.34589706    -0.21900
C894        C  0.48056448  0.54819111  0.34533324    -0.21900
C895        C  0.06524349  0.60079381  0.19549235    -0.17300
C896        C  0.06224952  0.60122446  0.30750431    -0.17300
C897        C  0.43730200  0.54115412  0.30524393    -0.17300
C898        C  0.44033708  0.53976775  0.19304866    -0.17300
H899        H  0.12470882  0.66019123  0.22132858     0.15600
H900        H  0.12300509  0.66045594  0.28308979     0.15600
H901        H  0.38015383  0.54008870  0.21623702     0.15600
H902        H  0.37845463  0.54079193  0.27798123     0.15600
H903        H  0.03821582  0.56631407  0.13679356     0.13900
H904        H  0.46946007  0.53293592  0.13531172     0.13900
H905        H  0.03231570  0.56652371  0.36557371     0.13900
H906        H  0.46346329  0.53425650  0.36453638     0.13900
H907        H  0.03130272  0.57210399  0.25118697     0.27200
H908        H  0.47102015  0.54370250  0.25016574     0.27200
N909        N  0.45726134  0.90557139  0.25177734    -0.35600
N910        N  0.43204469  0.93095164  0.20249368    -0.56200
N911        N  0.40594383  0.95736955  0.24982008    -0.35600
N912        N  0.43039371  0.93131196  0.29918435    -0.56200
C913        C  0.45910188  0.88828913  0.22664522     0.28000
C914        C  0.45789636  0.88819826  0.27735374     0.28000
C915        C  0.38928252  0.95901286  0.22418322     0.28000
C916        C  0.38879804  0.95967250  0.27481114     0.28000
C917        C  0.45265110  0.92318939  0.18547377     0.36600
C918        C  0.42453461  0.95101742  0.18439382     0.36600
C919        C  0.44992425  0.92319843  0.31740734     0.36600
C920        C  0.42264102  0.95192567  0.31623447     0.36600
C921        C  0.45992240  0.85906552  0.23627880    -0.20900
C922        C  0.45916702  0.85901095  0.26840546    -0.20900
C923        C  0.36066780  0.96141449  0.23293772    -0.20900
C924        C  0.36035705  0.96182952  0.26502327    -0.20900
C925        C  0.45773674  0.93777836  0.15604952    -0.21900
C926        C  0.43979953  0.95545968  0.15535454    -0.21900
C927        C  0.45400179  0.93807196  0.34656656    -0.21900
C928        C  0.43664538  0.95635603  0.34582004    -0.21900
C929        C  0.46442716  0.90089456  0.19577172    -0.17300
C930        C  0.46203151  0.90079170  0.30815438    -0.17300
C931        C  0.40103626  0.96448420  0.30571284    -0.17300
C932        C  0.40224246  0.96324325  0.19355251    -0.17300
H933        H  0.46245932  0.84065953  0.22171294     0.15600
H934        H  0.46103865  0.84057325  0.28348353     0.15600
H935        H  0.34295394  0.96436650  0.21778494     0.15600
H936        H  0.34232767  0.96513190  0.27946659     0.15600
H937        H  0.47204185  0.93518952  0.13688935     0.13900
H938        H  0.43754902  0.96921485  0.13557026     0.13900
H939        H  0.46727772  0.93533165  0.36646435     0.13900
H940        H  0.43388321  0.97045922  0.36504525     0.13900
H941        H  0.46120512  0.93065170  0.25156337     0.27200
H942        H  0.43068841  0.96051683  0.25021653     0.27200
C943        C  0.36964514  0.51915812  0.36833531     0.03300
C944        C  0.35224254  0.98249713  0.36817704     0.03200
C945        C  0.36317885  0.96521193  0.34796236    -0.17300
C946        C  0.39090428  0.98380847  0.32744510     0.03300
C947        C  0.40777397  0.52070226  0.32681002     0.03200
C948        C  0.39742706  0.53793230  0.34776342    -0.17300
H949        H  0.41096873  0.56603273  0.34797789     0.05300
H950        H  0.34989690  0.93711278  0.34803542     0.05300
N951        N  0.09697524  0.55136958  0.25140220    -0.35600
N952        N  0.07003679  0.99921219  0.29992172    -0.56200
N953        N  0.04620848  0.94786527  0.25163508    -0.35600
N954        N  0.07415642  0.99988712  0.20325623    -0.56200
C955        C  0.11290078  0.57013506  0.27706141     0.28000
C956        C  0.11494709  0.57042032  0.22646680     0.28000
C957        C  0.04308149  0.92867486  0.27710084     0.28000
C958        C  0.04449336  0.92895663  0.22643393     0.28000
C959        C  0.07702476  0.52730393  0.31702012     0.36600
C960        C  0.04961503  0.97105545  0.31735391     0.36600
C961        C  0.08217666  0.52800840  0.18527904     0.36600
C962        C  0.05408792  0.97185921  0.18552577     0.36600
C963        C  0.14197714  0.60102348  0.26844476    -0.20900
C964        C  0.14324886  0.60122178  0.23634815    -0.20900
C965        C  0.04037972  0.89758453  0.26804253    -0.20900
C966        C  0.04122493  0.89774334  0.23592939    -0.20900
C967        C  0.06173858  0.51694000  0.34611777    -0.21900
C968        C  0.04417872  0.98099999  0.34642586    -0.21900
C969        C  0.06805485  0.51781599  0.15580660    -0.21900
C970        C  0.05022971  0.98217563  0.15606557    -0.21900
C971        C  0.09903188  0.56175791  0.30742318    -0.17300
C972        C  0.10335913  0.56251863  0.19542365    -0.17300
C973        C  0.04071153  0.93729333  0.19553303    -0.17300
C974        C  0.03779067  0.93675425  0.30766042    -0.17300
H975        H  0.15936079  0.62194696  0.28362851     0.15600
H976        H  0.16177856  0.62233381  0.22189739     0.15600
H977        H  0.03629045  0.87627317  0.28294543     0.15600
H978        H  0.03791375  0.87658232  0.22122322     0.15600
H979        H  0.06348453  0.53330016  0.36544737     0.13900
H980        H  0.02997579  0.96438438  0.36580861     0.13900
H981        H  0.07067065  0.53433771  0.13631162     0.13900
H982        H  0.03640296  0.96573765  0.13650650     0.13900
H983        H  0.07212229  0.52972602  0.25077299     0.27200
H984        H  0.04342235  0.96970031  0.25126395     0.27200
C985        C  0.35590310  0.98269720  0.12954873     0.03300
C986        C  0.37478548  0.51908329  0.12867447     0.03200
C987        C  0.40250041  0.53726196  0.14936509    -0.17300
C988        C  0.41186649  0.51962163  0.17055990     0.03300
C989        C  0.39337374  0.98287348  0.17101939     0.03200
C990        C  0.36565393  0.96483864  0.15040305    -0.17300
H991        H  0.35146221  0.93672789  0.15074524     0.05300
H992        H  0.41645031  0.56537986  0.14943598     0.05300
C993        C  0.14448760  0.62549800  0.37257611     0.03300
C994        C  0.12711650  0.64465861  0.37266215     0.03200
C995        C  0.10008635  0.63614321  0.35149416    -0.17300
C996        C  0.09050415  0.60921193  0.33003057     0.03300
C997        C  0.10807575  0.59023287  0.32993096     0.03200
C998        C  0.13464710  0.59835692  0.35133321    -0.17300
H999        H  0.14826670  0.58393877  0.35097665     0.05300
H1000       H  0.08688403  0.65096251  0.35131694     0.05300
C1001       C  0.14980078  0.62905259  0.13151503     0.03300
C1002       C  0.13153394  0.64746423  0.13169863     0.03200
C1003       C  0.10413221  0.63772148  0.15289160    -0.17300
C1004       C  0.09454138  0.61019069  0.17368385     0.03300
C1005       C  0.11260704  0.59171761  0.17344081     0.03200
C1006       C  0.13990677  0.60128041  0.15238791    -0.17300
H1007       H  0.15378977  0.58712553  0.15248079     0.05300
H1008       H  0.08995410  0.65158122  0.15313642     0.05300
C1009       C  0.48103398  0.85433624  0.37261913     0.03300
C1010       C  0.01697950  0.87081160  0.37170825     0.03200
C1011       C  0.03522583  0.89779555  0.35037610    -0.17300
C1012       C  0.01759749  0.90797048  0.32984231     0.03300
C1013       C  0.48143920  0.89140996  0.33063344     0.03200
C1014       C  0.46328677  0.86479387  0.35236371    -0.17300
H1015       H  0.43522569  0.85167024  0.35304376     0.05300
H1016       H  0.06328171  0.91078266  0.34956290     0.05300
C1017       C  0.01895857  0.87094747  0.13141838     0.03300
C1018       C  0.48207436  0.85311933  0.13158603     0.03200
C1019       C  0.46497154  0.86339838  0.15292541    -0.17300
C1020       C  0.48357810  0.89079004  0.17372739     0.03300
C1021       C  0.02020208  0.90837448  0.17352638     0.03200
C1022       C  0.03744377  0.89838920  0.15237910    -0.17300
H1023       H  0.06554262  0.91210926  0.15227601     0.05300
H1024       H  0.43689296  0.84966045  0.15372553     0.05300
C1025       C  0.14828033  0.70919966  0.12362034    -0.20300
C1026       C  0.14045933  0.67722997  0.11064281    -0.08300
C1027       C  0.14059258  0.67406986  0.07804491     0.30500
C1028       C  0.14904106  0.70271610  0.05894300    -0.20300
C1029       C  0.15677939  0.73477859  0.07195404    -0.08400
C1030       C  0.15629435  0.73766562  0.10463484     0.30500
F1031       F  0.16365505  0.76799944  0.11841961    -0.18900
H1032       H  0.14828453  0.71212904  0.14867864     0.18900
H1033       H  0.14861058  0.69952554  0.03390640     0.18900
F1034       F  0.13160221  0.64311522  0.06465748    -0.18900
C1035       C  0.06129757  0.85104226  0.12306141    -0.20300
C1036       C  0.03903510  0.86134675  0.11022808    -0.08300
C1037       C  0.03702766  0.86324311  0.07766646     0.30500
C1038       C  0.05710798  0.85484693  0.05836194    -0.20300
C1039       C  0.07984373  0.84495785  0.07125384    -0.08400
C1040       C  0.08151230  0.84293403  0.10391815     0.30500
F1041       F  0.10262494  0.83303252  0.11749782    -0.18900
H1042       H  0.06304617  0.84934658  0.14811046     0.18900
H1043       H  0.05563299  0.85707724  0.03335762     0.18900
F1044       F  0.51640229  0.87439643  0.06441118    -0.18900
C1045       C  0.30041233  0.94547878  0.05711676    -0.20300
C1046       C  0.26772427  0.92315481  0.07031003    -0.08300
C1047       C  0.26433302  0.92137213  0.10300702     0.30500
C1048       C  0.29320014  0.94063092  0.12191710    -0.20300
C1049       C  0.32586868  0.96238771  0.10875225    -0.08400
C1050       C  0.32932050  0.96483348  0.07614017     0.30500
F1051       F  0.36110522  0.48436101  0.06193003    -0.18900
H1052       H  0.30384254  0.94712549  0.03206854     0.18900
H1053       H  0.29003640  0.93884261  0.14700128     0.18900
F1054       F  0.23309558  0.90109481  0.11680520    -0.18900
C1055       C  0.13934051  0.70029655  0.44341444    -0.20300
C1056       C  0.15721830  0.73375579  0.43054484    -0.08300
C1057       C  0.16565503  0.73766668  0.39862342     0.30500
C1058       C  0.15652634  0.70851428  0.38013969    -0.20300
C1059       C  0.13820455  0.67513802  0.39299603    -0.08400
C1060       C  0.12914904  0.67116495  0.42466156     0.30500
F1061       F  0.10877870  0.63921430  0.43704758    -0.18900
H1062       H  0.13158685  0.69662340  0.46768246     0.18900
H1063       H  0.16318461  0.71188051  0.35560889     0.18900
F1064       F  0.18251397  0.76957703  0.38527740    -0.18900
C1065       C  0.04243881  0.87072022  0.42339050    -0.20300
C1066       C  0.03656604  0.86009121  0.39218924    -0.08300
C1067       C  0.05030334  0.84015506  0.38040233     0.30500
C1068       C  0.07027129  0.83158761  0.39954012    -0.20300
C1069       C  0.07625491  0.84226092  0.43083738    -0.08400
C1070       C  0.06178836  0.86160919  0.44272654     0.30500
F1071       F  0.06797939  0.87338825  0.47251960    -0.18900
H1072       H  0.03265854  0.88675494  0.43258579     0.18900
H1073       H  0.08125152  0.81677846  0.38987689     0.18900
F1074       F  0.04466276  0.82933581  0.35032144    -0.18900
C1075       C  0.28870392  0.94636920  0.37708381    -0.20300
C1076       C  0.32245798  0.96179000  0.38893866    -0.08300
C1077       C  0.32761166  0.95683996  0.42031368     0.30500
C1078       C  0.29917827  0.93708649  0.43972693    -0.20300
C1079       C  0.26526882  0.92120498  0.42788136    -0.08400
C1080       C  0.26025082  0.92601836  0.39629764     0.30500
F1081       F  0.22788014  0.91130191  0.38407290    -0.18900
H1082       H  0.28447550  0.94996693  0.35285727     0.18900
H1083       H  0.30371681  0.93318037  0.46378067     0.18900
F1084       F  0.36013503  0.97024593  0.43187982    -0.18900
C1085       C  0.08604942  0.70297270  0.93170596    -0.20300
C1086       C  0.08201171  0.73224134  0.93244948    -0.08300
C1087       C  0.05686444  0.73302969  0.91324992     0.30500
C1088       C  0.03725149  0.70547895  0.89284936    -0.20300
C1089       C  0.04189008  0.67654148  0.89191853    -0.08400
C1090       C  0.06615602  0.67538289  0.91184054     0.30500
F1091       F  0.07037789  0.64728990  0.91228473    -0.18900
H1092       H  0.10479066  0.70139378  0.94659210     0.18900
H1093       H  0.01873511  0.70688009  0.87752616     0.18900
F1094       F  0.05210512  0.76078803  0.91334502    -0.18900
C1095       C  0.17263257  0.96260556  0.88934066    -0.20300
C1096       C  0.13972571  0.95955884  0.88914124    -0.08300
C1097       C  0.11432979  0.93679442  0.91010421     0.30500
C1098       C  0.12146612  0.91682737  0.93041292    -0.20300
C1099       C  0.15415069  0.91932832  0.93043589    -0.08400
C1100       C  0.17998245  0.94287235  0.91001779     0.30500
F1101       F  0.21176668  0.94584387  0.90916355    -0.18900
H1102       H  0.19244563  0.97991800  0.87315786     0.18900
H1103       H  0.10125174  0.89924999  0.94617208     0.18900
F1104       F  0.08263336  0.93405182  0.91103590    -0.18900
C1105       C  0.29215592  0.82978073  0.61152694    -0.20300
C1106       C  0.32247609  0.86249517  0.61091126    -0.08300
C1107       C  0.32470913  0.88776792  0.59006565     0.30500
C1108       C  0.29705638  0.88055741  0.57039487    -0.20300
C1109       C  0.26660053  0.84793032  0.57085975    -0.08400
C1110       C  0.26441225  0.82241002  0.59157532     0.30500
F1111       F  0.23517075  0.79088296  0.59332167    -0.18900
H1112       H  0.28990508  0.81009638  0.62768587     0.18900
H1113       H  0.29961106  0.90061366  0.55454383     0.18900
F1114       F  0.35394610  0.91933725  0.58840566    -0.18900
C1115       C  0.29773111  0.82950559  0.89310575    -0.20300
C1116       C  0.32784077  0.86242025  0.89369578    -0.08300
C1117       C  0.32980407  0.88737185  0.91476041     0.30500
C1118       C  0.30176256  0.88003754  0.93404866    -0.20300
C1119       C  0.27119730  0.84754265  0.93303925    -0.08400
C1120       C  0.26963353  0.82195032  0.91277586     0.30500
F1121       F  0.24055062  0.79030232  0.91096780    -0.18900
H1122       H  0.29575437  0.80993813  0.87695354     0.18900
H1123       H  0.30394369  0.90000290  0.94981066     0.18900
F1124       F  0.35905641  0.91887257  0.91677267    -0.18900
C1125       C  0.15993861  0.92181427  0.59946860    -0.20300
C1126       C  0.15556761  0.92226048  0.56720134    -0.08300
C1127       C  0.14312323  0.94295088  0.55457939     0.30500
C1128       C  0.13472921  0.96268460  0.57422808    -0.20300
C1129       C  0.13827307  0.96158530  0.60664839    -0.08400
C1130       C  0.15129014  0.94128763  0.61913450     0.30500
F1131       F  0.15532647  0.94013621  0.65036709    -0.18900
H1132       H  0.16906671  0.90555183  0.60946531     0.18900
H1133       H  0.12459395  0.97810512  0.56427619     0.18900
F1134       F  0.13816925  0.94321524  0.52340614    -0.18900
C1135       C  0.04626127  0.67104354  0.58086143    -0.20300
C1136       C  0.03871254  0.67787363  0.61083250    -0.08300
C1137       C  0.05110213  0.71233354  0.62010539     0.30500
C1138       C  0.07058204  0.73962078  0.59940581    -0.20300
C1139       C  0.07888754  0.73282800  0.56968729    -0.08400
C1140       C  0.06658153  0.69833380  0.56051210     0.30500
F1141       F  0.07433807  0.69113265  0.53189203    -0.18900
H1142       H  0.03694266  0.64457145  0.57351026     0.18900
H1143       H  0.08034734  0.76609756  0.60697562     0.18900
F1144       F  0.54979547  0.71935857  0.65181760    -0.18900
C1145       C  0.41702498  0.61926554  0.56960689    -0.20300
C1146       C  0.41918464  0.65181764  0.57026743    -0.08300
C1147       C  0.44306143  0.67746760  0.59058106     0.30500
C1148       C  0.46350731  0.67009873  0.61036535    -0.20300
C1149       C  0.46099461  0.63739156  0.60978118    -0.08400
C1150       C  0.43779123  0.61215013  0.58895988     0.30500
F1151       F  0.43528297  0.58057270  0.58728354    -0.18900
H1152       H  0.39915644  0.59916188  0.55396867     0.18900
H1153       H  0.48076861  0.68969713  0.62665884     0.18900
F1154       F  0.44563539  0.70906203  0.59229756    -0.18900
C1155       C  0.33215591  0.54380394  0.38289244    -0.20300
C1156       C  0.35958425  0.53820482  0.39019817    -0.08300
C1157       C  0.37755058  0.55101114  0.41833223     0.30500
C1158       C  0.36819388  0.56925513  0.43888626    -0.20300
C1159       C  0.34162536  0.57599930  0.43111974    -0.08400
C1160       C  0.32348690  0.56301021  0.40301651     0.30500
F1161       F  0.29755592  0.56904529  0.39505484    -0.18900
H1162       H  0.31800074  0.53389633  0.36131278     0.18900
H1163       H  0.38276183  0.57953428  0.46022220     0.18900
F1164       F  0.39990052  0.04193635  0.42751794    -0.18900
C1165       C  0.19857065  0.58095556  0.56358458    -0.20300
C1166       C  0.22981935  0.58077811  0.56697208    -0.08300
C1167       C  0.23188429  0.55865026  0.58906152     0.30500
C1168       C  0.20329518  0.53764268  0.60784464    -0.20300
C1169       C  0.17227925  0.53818064  0.60461734    -0.08400
C1170       C  0.16994620  0.55973299  0.58215221     0.30500
F1171       F  0.13997635  0.56014707  0.57817865    -0.18900
H1172       H  0.19632095  0.59758851  0.54648886     0.18900
H1173       H  0.20553519  0.52144330  0.62540871     0.18900
F1174       F  0.26191275  0.55850855  0.59348710    -0.18900
C1175       C  0.43665071  0.80038259  0.44415068    -0.20300
C1176       C  0.42225739  0.76660021  0.43218748    -0.08300
C1177       C  0.42788499  0.76204526  0.40070303     0.30500
C1178       C  0.44731583  0.79080463  0.38159505    -0.20300
C1179       C  0.46093417  0.82442186  0.39340579    -0.08400
C1180       C  0.45546360  0.82914998  0.42479338     0.30500
F1181       F  0.46756187  0.86149203  0.43645765    -0.18900
H1182       H  0.43212805  0.80449421  0.46816414     0.18900
H1183       H  0.45154393  0.78690747  0.35743491     0.18900
F1184       F  0.41465244  0.72980047  0.38842201    -0.18900
C1185       C  0.20027955  0.63441961  0.44209700    -0.20300
C1186       C  0.23369065  0.65342112  0.42923529    -0.08300
C1187       C  0.23741188  0.66228467  0.39746274     0.30500
C1188       C  0.20818096  0.65368815  0.37936894    -0.20300
C1189       C  0.17492664  0.63512335  0.39240190    -0.08400
C1190       C  0.17105011  0.62444240  0.42359886     0.30500
F1191       F  0.13916095  0.60314621  0.43575200    -0.18900
H1192       H  0.19679799  0.62604296  0.46618468     0.18900
H1193       H  0.21139201  0.66113853  0.35503333     0.18900
F1194       F  0.26922285  0.67940518  0.38398561    -0.18900
C1195       C  0.34593136  0.76200686  0.60288586    -0.20300
C1196       C  0.34391021  0.76564841  0.57067855    -0.08300
C1197       C  0.34921090  0.79716612  0.55856853     0.30500
C1198       C  0.35713607  0.82497241  0.57856443    -0.20300
C1199       C  0.35925582  0.82146518  0.61093558    -0.08400
C1200       C  0.35327362  0.78953439  0.62293674     0.30500
F1201       F  0.35477258  0.78505015  0.65406293    -0.18900
H1202       H  0.34225270  0.73790395  0.61245497     0.18900
H1203       H  0.36238570  0.84949422  0.56871030     0.18900
F1204       F  0.34814455  0.80145274  0.52736544    -0.18900
C1205       C  0.17463912  0.53558079  0.92016045    -0.20300
C1206       C  0.18009132  0.53645144  0.88788447    -0.08300
C1207       C  0.21384816  0.55610132  0.87604695     0.30500
C1208       C  0.24157650  0.57553420  0.89615056    -0.20300
C1209       C  0.23619974  0.57549650  0.92845773    -0.08400
C1210       C  0.20242511  0.55481874  0.94038026     0.30500
F1211       F  0.19596049  0.55438390  0.97133171    -0.18900
H1212       H  0.14871055  0.52036684  0.92960781     0.18900
H1213       H  0.26732991  0.59087783  0.88638416     0.18900
F1214       F  0.21996943  0.55618121  0.84505105    -0.18900
C1215       C  0.23478029  0.67661724  0.08641458    -0.20300
C1216       C  0.23286378  0.64958658  0.06809126    -0.08300
C1217       C  0.20317761  0.61640855  0.07027442     0.30500
C1218       C  0.17639058  0.61040908  0.09063407    -0.20300
C1219       C  0.17851130  0.63711177  0.10941416    -0.08400
C1220       C  0.20806453  0.67039580  0.10725816     0.30500
F1221       F  0.21169815  0.69651567  0.12599653    -0.18900
H1222       H  0.25750078  0.70226931  0.08540387     0.18900
H1223       H  0.15377974  0.58467491  0.09179695     0.18900
F1224       F  0.19982271  0.58965856  0.05259086    -0.18900
C1225       C  0.44147654  0.64779942  0.87727079    -0.20300
C1226       C  0.46434154  0.63848528  0.89050276    -0.08300
C1227       C  0.46714652  0.63822624  0.92311364     0.30500
C1228       C  0.44760050  0.64754872  0.94207111    -0.20300
C1229       C  0.42434115  0.65649614  0.92886825    -0.08400
C1230       C  0.42161344  0.65668826  0.89614086     0.30500
F1231       F  0.39976828  0.66546709  0.88226980    -0.18900
H1232       H  0.43908902  0.64824723  0.85218162     0.18900
H1233       H  0.44978917  0.64659225  0.96713158     0.18900
F1234       F  0.48806039  0.62804179  0.93661822    -0.18900
C1235       C  0.32570802  0.55610264  0.08668835    -0.20300
C1236       C  0.35148523  0.57993869  0.06652188    -0.08300
C1237       C  0.38435156  0.58271405  0.06640650     0.30500
C1238       C  0.39136356  0.56251433  0.08648514    -0.20300
C1239       C  0.36594157  0.53927978  0.10708230    -0.08400
C1240       C  0.33298018  0.53620909  0.10718368     0.30500
F1241       F  0.30785548  0.01534434  0.12805518    -0.18900
H1242       H  0.30039699  0.55385485  0.08742664     0.18900
H1243       H  0.41680829  0.56503448  0.08604078     0.18900
F1244       F  0.40978042  0.60489716  0.04680320    -0.18900
C1245       C  0.41409968  0.79540366  0.07281785    -0.20300
C1246       C  0.41915418  0.76676651  0.07089181    -0.08300
C1247       C  0.44540963  0.76676257  0.08904580     0.30500
C1248       C  0.46576619  0.79475259  0.10883519    -0.20300
C1249       C  0.46078929  0.82346525  0.11042310    -0.08400
C1250       C  0.43468770  0.82345781  0.09216258     0.30500
F1251       F  0.42938271  0.85088004  0.09267117    -0.18900
H1252       H  0.39427458  0.79631170  0.05900729     0.18900
H1253       H  0.48520599  0.79383261  0.12320844     0.18900
F1254       F  0.45075983  0.73938980  0.08842045    -0.18900
C1255       C  0.35700321  0.79686551  0.94312931    -0.20300
C1256       C  0.34756256  0.76456511  0.92968269    -0.08300
C1257       C  0.34734764  0.76175772  0.89697195     0.30500
C1258       C  0.35615936  0.79059421  0.87831728    -0.20300
C1259       C  0.36555175  0.82274388  0.89175566    -0.08400
C1260       C  0.36630091  0.82585374  0.92435665     0.30500
F1261       F  0.37693149  0.85704919  0.93800146    -0.18900
H1262       H  0.35811945  0.79993111  0.96820562     0.18900
H1263       H  0.35559057  0.78784802  0.85320972     0.18900
F1264       F  0.33854246  0.73117539  0.88287969    -0.18900
Zn1265     Zn  0.82864593  0.20347805  0.01391589     1.49700
Zn1266     Zn  0.87972851  0.17296016  0.01319073     1.49400
Zn1267     Zn  0.79669798  0.12115479  0.01342242     1.49100
Zn1268     Zn  0.83468106  0.16509106  0.95402845     1.49500
O1269       O  0.83489176  0.16558656  0.99904363    -1.83100
O1270       O  0.86708998  0.23386068  0.04283851    -0.73800
O1271       O  0.87122632  0.13304734  0.03990685    -0.73600
O1272       O  0.76601988  0.12962902  0.04156470    -0.73100
O1273       O  0.90592313  0.21676247  0.03969698    -0.73800
O1274       O  0.78372514  0.18582167  0.03806362    -0.73400
O1275       O  0.81479038  0.09460939  0.03798505    -0.74000
O1276       O  0.79025195  0.12658528  0.93693727    -0.73300
O1277       O  0.90867413  0.17128579  0.97720233    -0.74100
O1278       O  0.76513904  0.09252259  0.97778702    -0.73500
O1279       O  0.87305510  0.15920774  0.93713830    -0.74000
O1280       O  0.84129768  0.20971257  0.93768323    -0.73900
O1281       O  0.83277116  0.23517244  0.97845026    -0.73700
C1282       C  0.89629379  0.23738249  0.05019010     0.78100
C1283       C  0.84540645  0.10376230  0.04715166     0.78600
C1284       C  0.76255850  0.15551772  0.04827259     0.77600
C1285       C  0.76542764  0.09924839  0.94887200     0.78000
C1286       C  0.90112872  0.16333057  0.94858840     0.79100
C1287       C  0.83941484  0.23479915  0.94960736     0.78100
Zn1288     Zn  0.83206490  0.16535244  0.45473577     1.49700
Zn1289     Zn  0.82679381  0.12179348  0.51488669     1.49400
Zn1290     Zn  0.87618501  0.20427206  0.51577200     1.49100
Zn1291     Zn  0.79430400  0.17211182  0.51408671     1.49500
O1292       O  0.83249429  0.16581513  0.50009376    -1.83100
O1293       O  0.83650962  0.12584815  0.43757620    -0.73800
O1294       O  0.86661788  0.13033390  0.54245500    -0.73600
O1295       O  0.90383083  0.23601427  0.47994029    -0.73100
O1296       O  0.82909885  0.09306040  0.47915168    -0.73800
O1297       O  0.87113305  0.20998136  0.43847269    -0.73400
O1298       O  0.90391016  0.18699866  0.54028917    -0.74000
O1299       O  0.81088938  0.21682862  0.53825508    -0.73300
O1300       O  0.78215014  0.09528059  0.53973731    -0.74100
O1301       O  0.86680657  0.23424165  0.54464807    -0.73500
O1302       O  0.76330891  0.13296590  0.54161505    -0.74000
O1303       O  0.76250421  0.16775561  0.47903947    -0.73900
O1304       O  0.78772678  0.15976020  0.43777360    -0.73700
C1305       C  0.83434971  0.09894157  0.45000990     0.78100
C1306       C  0.89561435  0.15661325  0.54968161     0.78600
C1307       C  0.89769228  0.23535682  0.45082764     0.77600
C1308       C  0.84048548  0.23743063  0.54995671     0.78000
C1309       C  0.76030014  0.10394202  0.54880338     0.79100
C1310       C  0.76271190  0.16137618  0.45019305     0.78100
N1311       N  0.90618134  0.44816138  0.75100488    -0.35600
N1312       N  0.93323859  0.99988470  0.79936385    -0.56200
N1313       N  0.95867277  0.05157397  0.75082583    -0.35600
N1314       N  0.93087282  0.99987291  0.70262664    -0.56200
C1315       C  0.88968110  0.42939449  0.77659644     0.28000
C1316       C  0.88844095  0.42932718  0.72591684     0.28000
C1317       C  0.96122713  0.07048679  0.77631197     0.28000
C1318       C  0.96026694  0.07055198  0.72567855     0.28000
C1319       C  0.92583693  0.47176808  0.81671668     0.36600
C1320       C  0.95398097  0.02795507  0.81671706     0.36600
C1321       C  0.92163631  0.47187588  0.68477681     0.36600
C1322       C  0.95076960  0.02787725  0.68473245     0.36600
C1323       C  0.86054802  0.39872700  0.76772874    -0.20900
C1324       C  0.85978828  0.39866897  0.73561619    -0.20900
C1325       C  0.96355272  0.10143537  0.76733106    -0.20900
C1326       C  0.96296552  0.10148231  0.73525354    -0.20900
C1327       C  0.94135633  0.48192158  0.84570647    -0.21900
C1328       C  0.95888499  0.01781494  0.84589075    -0.21900
C1329       C  0.93528811  0.48216113  0.65511415    -0.21900
C1330       C  0.95430811  0.01750672  0.65519829    -0.21900
C1331       C  0.90306216  0.43742318  0.80715659    -0.17300
C1332       C  0.90025008  0.43736368  0.69486230    -0.17300
C1333       C  0.96390734  0.06241383  0.69466286    -0.17300
C1334       C  0.96616489  0.06232907  0.80691638    -0.17300
H1335       H  0.84274366  0.37784045  0.78277919     0.15600
H1336       H  0.84127075  0.37775564  0.72104109     0.15600
H1337       H  0.96705561  0.12249098  0.78228493     0.15600
H1338       H  0.96589870  0.12255648  0.72062100     0.15600
H1339       H  0.93903368  0.46541391  0.86511197     0.13900
H1340       H  0.97321209  0.03435782  0.86523271     0.13900
H1341       H  0.93230712  0.46570189  0.63546527     0.13900
H1342       H  0.96775798  0.03389930  0.63546819     0.13900
H1343       H  0.93111938  0.46964167  0.75052369     0.27200
H1344       H  0.96161957  0.02984402  0.75051397     0.27200
N1345       N  0.59596131  0.04218822  0.74836112    -0.35600
N1346       N  0.57062062  0.06990021  0.70126910    -0.56200
N1347       N  0.54811459  0.09735937  0.75074040    -0.35600
N1348       N  0.57421412  0.07050812  0.79800003    -0.56200
C1349       C  0.61163953  0.03972412  0.72232328     0.28000
C1350       C  0.61393130  0.04044913  0.77293785     0.28000
C1351       C  0.54603534  0.11470124  0.72576424     0.28000
C1352       C  0.54727224  0.11437211  0.77645921     0.28000
C1353       C  0.57648932  0.04863003  0.68319246     0.36600
C1354       C  0.55067175  0.07872304  0.68449575     0.36600
C1355       C  0.58181659  0.04975302  0.81501796     0.36600
C1356       C  0.55478878  0.07875933  0.81628323     0.36600
C1357       C  0.64046445  0.03739824  0.73036888    -0.20900
C1358       C  0.64190636  0.03784256  0.76244645    -0.20900
C1359       C  0.54499409  0.14373354  0.73566254    -0.20900
C1360       C  0.54574138  0.14350757  0.76778454    -0.20900
C1361       C  0.56087603  0.04447718  0.65441398    -0.21900
C1362       C  0.54449595  0.06367122  0.65522640    -0.21900
C1363       C  0.56797118  0.04550579  0.84469130    -0.21900
C1364       C  0.55073961  0.06392906  0.84548394    -0.21900
C1365       C  0.59787890  0.03522749  0.69199395    -0.17300
C1366       C  0.60280071  0.03654443  0.80419458    -0.17300
C1367       C  0.54261406  0.10113710  0.80705571    -0.17300
C1368       C  0.54002711  0.10191397  0.69495371    -0.17300
H1369       H  0.65765056  0.03406361  0.71478272     0.15600
H1370       H  0.66039258  0.03487696  0.77646740     0.15600
H1371       H  0.54205043  0.16203161  0.72130515     0.15600
H1372       H  0.54348746  0.16160354  0.78302724     0.15600
H1373       H  0.56188479  0.02989677  0.63470835     0.13900
H1374       H  0.53042921  0.06685856  0.63624052     0.13900
H1375       H  0.57054637  0.03122052  0.86385980     0.13900
H1376       H  0.53747015  0.06671440  0.86540663     0.13900
H1377       H  0.57136666  0.03939620  0.74935678     0.27200
H1378       H  0.54404744  0.07224527  0.75044575     0.27200
N1379       N  0.94934737  0.40220095  0.75009158    -0.35600
N1380       N  0.50232268  0.42795352  0.79758698    -0.56200
N1381       N  0.55248662  0.45315449  0.74815866    -0.35600
N1382       N  0.49950295  0.42665860  0.70095725    -0.56200
C1383       C  0.93108130  0.38535002  0.77573898     0.28000
C1384       C  0.92971611  0.38526614  0.72511628     0.28000
C1385       C  0.57210397  0.45558153  0.77300909     0.28000
C1386       C  0.57054591  0.45461745  0.72238592     0.28000
C1387       C  0.97462001  0.42016594  0.81555601     0.36600
C1388       C  0.53083819  0.44858548  0.81449101     0.36600
C1389       C  0.97133482  0.41958793  0.68387852     0.36600
C1390       C  0.52714823  0.44689546  0.68289997     0.36600
C1391       C  0.89990191  0.35675888  0.76700668    -0.20900
C1392       C  0.89904176  0.35670615  0.73490065    -0.20900
C1393       C  0.60255130  0.45747993  0.76299890    -0.20900
C1394       C  0.60157464  0.45689552  0.73087970    -0.20900
C1395       C  0.98554311  0.43518338  0.84465296    -0.21900
C1396       C  0.52147737  0.45358590  0.84398604    -0.21900
C1397       C  0.98100233  0.43449868  0.65458794    -0.21900
C1398       C  0.51638148  0.45170548  0.65400094    -0.21900
C1399       C  0.93995427  0.39827092  0.80634838    -0.17300
C1400       C  0.93711765  0.39798362  0.69434539    -0.17300
C1401       C  0.56171582  0.45923700  0.69197151    -0.17300
C1402       C  0.56495336  0.46091558  0.80386623    -0.17300
H1403       H  0.87920108  0.33893586  0.78220431     0.15600
H1404       H  0.87757877  0.33882439  0.72046858     0.15600
H1405       H  0.62399146  0.46086342  0.77729325     0.15600
H1406       H  0.62213630  0.45979739  0.71553967     0.15600
H1407       H  0.96954509  0.43289675  0.86447859     0.13900
H1408       H  0.53850414  0.46794521  0.86305206     0.13900
H1409       H  0.96417435  0.43252165  0.63561312     0.13900
H1410       H  0.53246701  0.46577526  0.63429626     0.13900
H1411       H  0.97099240  0.42701815  0.74978107     0.27200
H1412       H  0.53108998  0.45660580  0.74864866     0.27200
C1413       C  0.98258743  0.12875864  0.63093983     0.03300
C1414       C  0.51934318  0.14876668  0.63213167     0.03200
C1415       C  0.53749481  0.13990935  0.65349472    -0.17300
C1416       C  0.51991131  0.11146161  0.67353939     0.03300
C1417       C  0.98339130  0.09159798  0.67247487     0.03200
C1418       C  0.96513963  0.10026911  0.65119533    -0.17300
H1419       H  0.93708042  0.08503238  0.65079451     0.05300
H1420       H  0.56555965  0.15496060  0.65422607     0.05300
C1421       C  0.62681870  0.48081440  0.62702373     0.03300
C1422       C  0.64324219  0.01695976  0.62641334     0.03200
C1423       C  0.63247679  0.03425651  0.64685368    -0.17300
C1424       C  0.60652087  0.01581456  0.66892913     0.03300
C1425       C  0.58997118  0.47965495  0.66946820     0.03200
C1426       C  0.60032104  0.46232582  0.64876500    -0.17300
H1427       H  0.58776958  0.43428469  0.64970533     0.05300
H1428       H  0.64524019  0.06232767  0.64635343     0.05300
C1429       C  0.87439179  0.35265535  0.87078639     0.03300
C1430       C  0.85660738  0.37145298  0.87136009     0.03200
C1431       C  0.86676281  0.39938398  0.85068252    -0.17300
C1432       C  0.89379078  0.40847120  0.82936352     0.03300
C1433       C  0.91152001  0.38967828  0.82893385     0.03200
C1434       C  0.90172580  0.36207761  0.84963023    -0.17300
H1435       H  0.91537711  0.34769564  0.84912492     0.05300
H1436       H  0.85311648  0.41376812  0.85074707     0.05300
C1437       C  0.85282297  0.37145261  0.63084330     0.03300
C1438       C  0.86990071  0.35187763  0.63130028     0.03200
C1439       C  0.89755893  0.36136686  0.65208320    -0.17300
C1440       C  0.90783990  0.38907887  0.67276698     0.03300
C1441       C  0.89051980  0.40827417  0.67263171     0.03200
C1442       C  0.86345772  0.39946328  0.65153167    -0.17300
H1443       H  0.85016989  0.41419984  0.65160468     0.05300
H1444       H  0.91134709  0.34712079  0.65217101     0.05300
C1445       C  0.63122919  0.48037424  0.86721393     0.03300
C1446       C  0.65049047  0.01670420  0.86671014     0.03200
C1447       C  0.64068164  0.03468658  0.84606282    -0.17300
C1448       C  0.61261203  0.01673623  0.82572923     0.03300
C1449       C  0.59442471  0.48080177  0.82544260     0.03200
C1450       C  0.60347200  0.46270513  0.84647579    -0.17300
H1451       H  0.58886665  0.43459260  0.84655223     0.05300
H1452       H  0.65482358  0.06279622  0.84593781     0.05300
C1453       C  0.52186564  0.14743872  0.87032177     0.03300
C1454       C  0.98501157  0.12923110  0.86965106     0.03200
C1455       C  0.96744412  0.10125323  0.84907125    -0.17300
C1456       C  0.98569254  0.09127581  0.82904550     0.03300
C1457       C  0.52249893  0.10976664  0.82937335     0.03200
C1458       C  0.54005965  0.13745771  0.85001449    -0.17300
H1459       H  0.56815885  0.15170560  0.84990667     0.05300
H1460       H  0.93935129  0.08715405  0.84854871     0.05300
Zn1461     Zn  0.62294825  0.32818797  0.51391218     1.49700
Zn1462     Zn  0.67203165  0.29481207  0.51472857     1.49400
Zn1463     Zn  0.66579525  0.33199049  0.45340520     1.49100
Zn1464     Zn  0.70540347  0.37742108  0.51256413     1.49500
O1465       O  0.66654338  0.33303617  0.49887214    -1.83100
O1466       O  0.59542096  0.28421563  0.53959290    -0.73800
O1467       O  0.66980136  0.26349936  0.47944739    -0.73600
O1468       O  0.62625475  0.33639283  0.43617936    -0.73100
O1469       O  0.63197155  0.26403019  0.54252790    -0.73800
O1470       O  0.59493121  0.33120785  0.47830113    -0.73400
O1471       O  0.66124510  0.28775795  0.43770109    -0.74000
O1472       O  0.73620132  0.40455140  0.47635398    -0.73300
O1473       O  0.71621107  0.31250528  0.54036925    -0.74100
O1474       O  0.70978279  0.37083466  0.43563302    -0.73500
O1475       O  0.73621662  0.36927272  0.54084468    -0.74000
O1476       O  0.68899879  0.40572945  0.53666899    -0.73900
O1477       O  0.63238104  0.36845713  0.54112018    -0.73700
C1478       C  0.60342210  0.26222289  0.54958889     0.78100
C1479       C  0.66388781  0.26341579  0.45037207     0.78600
C1480       C  0.60026745  0.33579616  0.44906063     0.77600
C1481       C  0.73511624  0.39786217  0.44737627     0.78000
C1482       C  0.73839921  0.34307375  0.54924848     0.79100
C1483       C  0.65907278  0.39756274  0.54704563     0.78100
Zn1484     Zn  0.66852244  0.33453535  0.04598142     1.49700
Zn1485     Zn  0.67440054  0.29544463  0.98703302     1.49400
Zn1486     Zn  0.62403934  0.32792667  0.98691122     1.51900
Zn1487     Zn  0.70703610  0.37775862  0.98563822     1.49500
O1488       O  0.66849730  0.33394665  0.00097642    -1.83100
O1489       O  0.66158160  0.28977939  0.06330161    -0.73800
O1490       O  0.63465626  0.26479442  0.95972976    -0.73600
O1491       O  0.59558867  0.33095797  0.02259218    -0.73100
O1492       O  0.67101686  0.26435740  0.02310580    -0.73800
O1493       O  0.63057582  0.34149990  0.06286851    -0.73400
O1494       O  0.59688391  0.28341392  0.96204347    -0.74000
O1495       O  0.68962898  0.40426856  0.95993478    -0.73300
O1496       O  0.71885962  0.31189570  0.96177393    -0.74100
O1497       O  0.63283281  0.36729624  0.95901255    -0.73500
O1498       O  0.73797909  0.36839498  0.95850773    -0.74000
O1499       O  0.73851091  0.40689130  0.02093188    -0.73900
O1500       O  0.71362248  0.37286220  0.06188146    -0.73700
C1501       C  0.66404595  0.26478736  0.05187221     0.78100
C1502       C  0.60563831  0.26180434  0.95248862     0.78600
C1503       C  0.60288711  0.33830303  0.05130097     0.77600
C1504       C  0.65915689  0.39585442  0.95089563     0.78000
C1505       C  0.74079218  0.34210687  0.95183176     0.79100
C1506       C  0.73844670  0.40010970  0.04980587     0.78100
N1507       N  0.55303591  0.09660250  0.25129267    -0.35600
N1508       N  0.00252668  0.07124863  0.20221072    -0.56200
N1509       N  0.94970899  0.04650536  0.24968940    -0.35600
N1510       N  0.00012169  0.07274811  0.29893134    -0.56200
C1511       C  0.57262946  0.11345718  0.22621171     0.28000
C1512       C  0.57131670  0.11360851  0.27684052     0.28000
C1513       C  0.93157518  0.04441241  0.22378882     0.28000
C1514       C  0.93030604  0.04507202  0.27448353     0.28000
C1515       C  0.53098580  0.07884264  0.18511370     0.36600
C1516       C  0.97479031  0.05114997  0.18424920     0.36600
C1517       C  0.52763979  0.07957798  0.31683218     0.36600
C1518       C  0.97156435  0.05269990  0.31610881     0.36600
C1519       C  0.60326792  0.14212261  0.23585883    -0.20900
C1520       C  0.60245243  0.14218696  0.26796891    -0.20900
C1521       C  0.90073329  0.04268654  0.23215019    -0.20900
C1522       C  0.89992345  0.04307835  0.26426955    -0.20900
C1523       C  0.52131094  0.06407016  0.15579569    -0.21900
C1524       C  0.98549981  0.04640685  0.15526697    -0.21900
C1525       C  0.51652720  0.06464189  0.34596206    -0.21900
C1526       C  0.98088947  0.04768495  0.34558918    -0.21900
C1527       C  0.56522092  0.10071076  0.19544895    -0.17300
C1528       C  0.56238142  0.10089214  0.30751581    -0.17300
C1529       C  0.93746043  0.04056530  0.30560993    -0.17300
C1530       C  0.94024475  0.03917669  0.19340961    -0.17300
H1531       H  0.62468446  0.16002606  0.22133285     0.15600
H1532       H  0.62310825  0.16012450  0.28308395     0.15600
H1533       H  0.88019031  0.03961332  0.21675761     0.15600
H1534       H  0.87865355  0.04036125  0.27848956     0.15600
H1535       H  0.53815198  0.06631711  0.13669078     0.13900
H1536       H  0.96937326  0.03258695  0.13555349     0.13900
H1537       H  0.53240719  0.06637523  0.36566574     0.13900
H1538       H  0.96385230  0.03371726  0.36481880     0.13900
H1539       H  0.53135182  0.07181644  0.25116691     0.27200
H1540       H  0.97102510  0.04295508  0.25046382     0.27200
N1541       N  0.95728470  0.40553053  0.25171799    -0.35600
N1542       N  0.93236758  0.43110058  0.20234779    -0.56200
N1543       N  0.90629028  0.45762922  0.24952952    -0.35600
N1544       N  0.93055965  0.43147217  0.29898281    -0.56200
C1545       C  0.95908418  0.38819657  0.22661704     0.28000
C1546       C  0.95786678  0.38815462  0.27730927     0.28000
C1547       C  0.88967807  0.45922757  0.22384278     0.28000
C1548       C  0.88895234  0.45974174  0.27445078     0.28000
C1549       C  0.95288990  0.42319191  0.18538101     0.36600
C1550       C  0.92499986  0.45122386  0.18419005     0.36600
C1551       C  0.95002397  0.42331718  0.31726673     0.36600
C1552       C  0.92273314  0.45206970  0.31597952     0.36600
C1553       C  0.95982848  0.35894156  0.23628339    -0.20900
C1554       C  0.95906958  0.35892035  0.26840301    -0.20900
C1555       C  0.86091762  0.46141574  0.23248401    -0.20900
C1556       C  0.86044888  0.46173202  0.26456549    -0.20900
C1557       C  0.95806489  0.43774443  0.15593354    -0.21900
C1558       C  0.94028423  0.45557646  0.15517279    -0.21900
C1559       C  0.95402339  0.43818792  0.34641783    -0.21900
C1560       C  0.93665232  0.45647406  0.34560354    -0.21900
C1561       C  0.96450628  0.40080392  0.19575085    -0.17300
C1562       C  0.96203926  0.40079560  0.30808219    -0.17300
C1563       C  0.90106638  0.46454764  0.30537959    -0.17300
C1564       C  0.90274515  0.46350657  0.19326408    -0.17300
H1565       H  0.96233732  0.34050044  0.22174452     0.15600
H1566       H  0.96090337  0.34047541  0.28350100     0.15600
H1567       H  0.84318963  0.46426118  0.21726113     0.15600
H1568       H  0.84226468  0.46485474  0.27894511     0.15600
H1569       H  0.97231180  0.43502246  0.13679727     0.13900
H1570       H  0.93812301  0.46934451  0.13535422     0.13900
H1571       H  0.96721840  0.43540632  0.36636021     0.13900
H1572       H  0.93379447  0.47053087  0.36481603     0.13900
H1573       H  0.96131434  0.43064275  0.25147230     0.27200
H1574       H  0.93108474  0.46089790  0.25001178     0.27200
C1575       C  0.86939335  0.01869292  0.36832456     0.03300
C1576       C  0.85197471  0.48219092  0.36782629     0.03200
C1577       C  0.86269556  0.46502059  0.34724060    -0.17300
C1578       C  0.89071154  0.48374080  0.32705258     0.03300
C1579       C  0.90789749  0.02017004  0.32718012     0.03200
C1580       C  0.89733002  0.03744021  0.34788331    -0.17300
H1581       H  0.91079211  0.06553841  0.34798131     0.05300
H1582       H  0.84915066  0.43691517  0.34689965     0.05300
N1583       N  0.59725389  0.05138941  0.25157858    -0.35600
N1584       N  0.57055341  0.50012647  0.29941436    -0.56200
N1585       N  0.54650863  0.44839435  0.25143290    -0.35600
N1586       N  0.57442156  0.50002258  0.20273858    -0.56200
C1587       C  0.61323906  0.07005617  0.27726825     0.28000
C1588       C  0.61519977  0.07049667  0.22665736     0.28000
C1589       C  0.54345348  0.42940243  0.27703242     0.28000
C1590       C  0.54465545  0.42925940  0.22635269     0.28000
C1591       C  0.57725268  0.02713628  0.31712589     0.36600
C1592       C  0.55017729  0.47211578  0.31702493     0.36600
C1593       C  0.58227513  0.02825131  0.18540327     0.36600
C1594       C  0.55421734  0.47188048  0.18517364     0.36600
C1595       C  0.64233483  0.10094413  0.26867761    -0.20900
C1596       C  0.64355522  0.10123838  0.23657251    -0.20900
C1597       C  0.54064899  0.39821108  0.26817227    -0.20900
C1598       C  0.54135493  0.39809906  0.23605966    -0.20900
C1599       C  0.56181955  0.01668580  0.34615747    -0.21900
C1600       C  0.54483440  0.48230283  0.34601633    -0.21900
C1601       C  0.56814294  0.01818486  0.15591854    -0.21900
C1602       C  0.55022248  0.48202955  0.15568418    -0.21900
C1603       C  0.59936540  0.06161999  0.30763521    -0.17300
C1604       C  0.60354214  0.06270043  0.19562069    -0.17300
C1605       C  0.54080674  0.43736380  0.19538110    -0.17300
C1606       C  0.53830505  0.43773639  0.30755502    -0.17300
H1607       H  0.65975927  0.12181077  0.28388942     0.15600
H1608       H  0.66208393  0.12237923  0.22214659     0.15600
H1609       H  0.53658068  0.37700572  0.28321120     0.15600
H1610       H  0.53794265  0.37680032  0.22149793     0.15600
H1611       H  0.56353669  0.03299330  0.36552278     0.13900
H1612       H  0.53066844  0.46584427  0.36549457     0.13900
H1613       H  0.57081966  0.03478268  0.13646948     0.13900
H1614       H  0.53626777  0.46547382  0.13622784     0.13900
H1615       H  0.57237015  0.02978815  0.25094124     0.27200
H1616       H  0.54378034  0.47025630  0.25091571     0.27200
C1617       C  0.85679072  0.48264503  0.12871971     0.03300
C1618       C  0.87445744  0.01923594  0.12939533     0.03200
C1619       C  0.90236460  0.03714502  0.14996653    -0.17300
C1620       C  0.91170174  0.01925899  0.17092704     0.03300
C1621       C  0.89387165  0.48304597  0.17065435     0.03200
C1622       C  0.86651033  0.46489654  0.14972055    -0.17300
H1623       H  0.85251117  0.43678521  0.14998735     0.05300
H1624       H  0.91652024  0.06526208  0.15012229     0.05300
C1625       C  0.64448657  0.12549768  0.37281682     0.03300
C1626       C  0.62726711  0.14474640  0.37261529     0.03200
C1627       C  0.60031166  0.13618465  0.35134591    -0.17300
C1628       C  0.59067984  0.10905735  0.33006815     0.03300
C1629       C  0.60827558  0.09008266  0.33015159     0.03200
C1630       C  0.63474509  0.09825247  0.35171409    -0.17300
H1631       H  0.64836447  0.08383466  0.35157258     0.05300
H1632       H  0.58713101  0.15102088  0.35102068     0.05300
C1633       C  0.65033583  0.12944046  0.13201307     0.03300
C1634       C  0.63203106  0.14782194  0.13206188     0.03200
C1635       C  0.60435976  0.13787451  0.15300425    -0.17300
C1636       C  0.59459180  0.11020558  0.17369287     0.03300
C1637       C  0.61284941  0.09192943  0.17368236     0.03200
C1638       C  0.64034896  0.10164202  0.15285588    -0.17300
H1639       H  0.65429337  0.08754816  0.15307833     0.05300
H1640       H  0.59014213  0.15169385  0.15314983     0.05300
C1641       C  0.98090089  0.35378800  0.37220331     0.03300
C1642       C  0.51761848  0.37159690  0.37142849     0.03200
C1643       C  0.53583908  0.39892592  0.35039956    -0.17300
C1644       C  0.51817648  0.40909891  0.32990420     0.03300
C1645       C  0.98140106  0.39134099  0.33056110     0.03200
C1646       C  0.96319783  0.36423649  0.35183940    -0.17300
H1647       H  0.93511789  0.35081777  0.35217007     0.05300
H1648       H  0.56390300  0.41202298  0.34963361     0.05300
C1649       C  0.51865563  0.37024282  0.13185967     0.03300
C1650       C  0.98196856  0.35259665  0.13195182     0.03200
C1651       C  0.96492900  0.36314541  0.15306705    -0.17300
C1652       C  0.98360605  0.39058291  0.17380142     0.03300
C1653       C  0.52017424  0.40824916  0.17355260     0.03200
C1654       C  0.53728263  0.39788809  0.15260172    -0.17300
H1655       H  0.56537742  0.41148718  0.15245723     0.05300
H1656       H  0.93684824  0.34959476  0.15372718     0.05300
C1657       C  0.64892095  0.20964527  0.12403443    -0.20300
C1658       C  0.64113129  0.17768048  0.11105262    -0.08300
C1659       C  0.64145266  0.17459244  0.07846088     0.30500
C1660       C  0.64996552  0.20325779  0.05936565    -0.20300
C1661       C  0.65759580  0.23529494  0.07235861    -0.08400
C1662       C  0.65702312  0.23815175  0.10504460     0.30500
F1663       F  0.66432277  0.26847173  0.11882290    -0.18900
H1664       H  0.64880052  0.21252801  0.14909066     0.18900
H1665       H  0.64962242  0.20008125  0.03433234     0.18900
F1666       F  0.63254505  0.14366646  0.06506008    -0.18900
C1667       C  0.56044452  0.34961179  0.12348064    -0.20300
C1668       C  0.53855068  0.36040832  0.11068840    -0.08300
C1669       C  0.53686782  0.36277527  0.07814926     0.30500
C1670       C  0.55697650  0.35445693  0.05881216    -0.20300
C1671       C  0.57943177  0.34418337  0.07165427    -0.08400
C1672       C  0.58069599  0.34156999  0.10429449     0.30500
F1673       F  0.60148053  0.33120261  0.11778908    -0.18900
H1674       H  0.56193189  0.34755865  0.14851715     0.18900
H1675       H  0.55581209  0.35712785  0.03383221     0.18900
F1676       F  0.01704433  0.37458558  0.06504852    -0.18900
C1677       C  0.80097087  0.44547087  0.05640888    -0.20300
C1678       C  0.76829726  0.42332683  0.06973613    -0.08300
C1679       C  0.76511260  0.42155208  0.10244758     0.30500
C1680       C  0.79411152  0.44065001  0.12123490    -0.20300
C1681       C  0.82673723  0.46227038  0.10795739    -0.08400
C1682       C  0.83002978  0.46470125  0.07532694     0.30500
F1683       F  0.86088871  0.98483782  0.06267956    -0.18900
H1684       H  0.80425324  0.44709709  0.03134460     0.18900
H1685       H  0.79106679  0.43889627  0.14633086     0.18900
F1686       F  0.73393237  0.40145175  0.11639581    -0.18900
C1687       C  0.64177835  0.20021051  0.44406701    -0.20300
C1688       C  0.65800374  0.23360191  0.43100555    -0.08300
C1689       C  0.66507157  0.23754363  0.39880674     0.30500
C1690       C  0.65543096  0.20848016  0.38009525    -0.20300
C1691       C  0.63836598  0.17514374  0.39307231    -0.08400
C1692       C  0.63153006  0.17113106  0.42520101     0.30500
F1693       F  0.61344357  0.13909978  0.43806795    -0.18900
H1694       H  0.63542855  0.19648196  0.46865287     0.18900
H1695       H  0.66089930  0.21189509  0.35533901     0.18900
F1696       F  0.68109045  0.26943196  0.38538736    -0.18900
C1697       C  0.54851363  0.37626086  0.42101009    -0.20300
C1698       C  0.53736154  0.36090333  0.39168375    -0.08300
C1699       C  0.54617492  0.33641505  0.38142512     0.30500
C1700       C  0.56629930  0.32775751  0.40031525    -0.20300
C1701       C  0.57704625  0.34279373  0.42992458    -0.08400
C1702       C  0.56776739  0.36695849  0.44022363     0.30500
F1703       F  0.57891369  0.38294860  0.46819681    -0.18900
H1704       H  0.54259878  0.39578554  0.42886324     0.18900
H1705       H  0.57351889  0.30936772  0.39187167     0.18900
F1706       F  0.53579003  0.32140737  0.35299069    -0.18900
C1707       C  0.78858632  0.44332702  0.37574422    -0.20300
C1708       C  0.82200999  0.46137146  0.38837860    -0.08300
C1709       C  0.82668151  0.45913089  0.42042335     0.30500
C1710       C  0.79810517  0.43950911  0.43967806    -0.20300
C1711       C  0.76454635  0.42107202  0.42711607    -0.08400
C1712       C  0.76000348  0.42317271  0.39487192     0.30500
F1713       F  0.72798469  0.40594700  0.38186464    -0.18900
H1714       H  0.78471429  0.44482848  0.35100832     0.18900
H1715       H  0.80236795  0.43771437  0.46427644     0.18900
F1716       F  0.85896851  0.47494899  0.43287015    -0.18900
C1717       C  0.58593617  0.20279264  0.93205486    -0.20300
C1718       C  0.58215331  0.23221759  0.93259114    -0.08300
C1719       C  0.55737174  0.23326016  0.91306986     0.30500
C1720       C  0.53774305  0.20572700  0.89267552    -0.20300
C1721       C  0.54205456  0.17659364  0.89200097    -0.08400
C1722       C  0.56606611  0.17524105  0.91213320     0.30500
F1723       F  0.57006535  0.14701439  0.91271910    -0.18900
H1724       H  0.60445814  0.20107286  0.94713780     0.18900
H1725       H  0.51948149  0.20729947  0.87713864     0.18900
F1726       F  0.55303237  0.26127466  0.91281556    -0.18900
C1727       C  0.67218764  0.46299675  0.88978255    -0.20300
C1728       C  0.63924494  0.45986903  0.88936687    -0.08300
C1729       C  0.61363425  0.43669798  0.90999139     0.30500
C1730       C  0.62065850  0.41654102  0.93020851    -0.20300
C1731       C  0.65344534  0.41926154  0.93051562    -0.08400
C1732       C  0.67942731  0.44312064  0.91038394     0.30500
F1733       F  0.71130777  0.44630982  0.90973879    -0.18900
H1734       H  0.69215121  0.48050393  0.87381213     0.18900
H1735       H  0.60029384  0.39868623  0.94570368     0.18900
F1736       F  0.58184067  0.43374254  0.91070594    -0.18900
C1737       C  0.79348722  0.33053974  0.60971112    -0.20300
C1738       C  0.82368450  0.36333235  0.60938145    -0.08300
C1739       C  0.82581326  0.38882006  0.58884048     0.30500
C1740       C  0.79809437  0.38174739  0.56927971    -0.20300
C1741       C  0.76773080  0.34904395  0.56954816    -0.08400
C1742       C  0.76574744  0.32329204  0.58984615     0.30500
F1743       F  0.73666058  0.29162100  0.59132056    -0.18900
H1744       H  0.79127973  0.31069754  0.62564902     0.18900
H1745       H  0.80049189  0.40196804  0.55372568     0.18900
F1746       F  0.85493787  0.42050254  0.58746548    -0.18900
C1747       C  0.79727529  0.32963133  0.89261005    -0.20300
C1748       C  0.82733180  0.36259842  0.89304908    -0.08300
C1749       C  0.82919147  0.38767929  0.91390414     0.30500
C1750       C  0.80115998  0.38035706  0.93320594    -0.20300
C1751       C  0.77071356  0.34775017  0.93243742    -0.08400
C1752       C  0.76920535  0.32208752  0.91230875     0.30500
F1753       F  0.74021397  0.29035198  0.91068703    -0.18900
H1754       H  0.79533211  0.30998082  0.87658089     0.18900
H1755       H  0.80328239  0.40039927  0.94883653     0.18900
F1756       F  0.85833964  0.41928199  0.91573524    -0.18900
C1757       C  0.65967935  0.42205244  0.59896343    -0.20300
C1758       C  0.65467154  0.42191447  0.56674829    -0.08300
C1759       C  0.64165611  0.44212645  0.55413798     0.30500
C1760       C  0.63331265  0.46194030  0.57374407    -0.20300
C1761       C  0.63745621  0.46138861  0.60612585    -0.08400
C1762       C  0.65105504  0.44158397  0.61859537     0.30500
F1763       F  0.65576082  0.44103305  0.64977855    -0.18900
H1764       H  0.66932019  0.40622199  0.60896033     0.18900
H1765       H  0.62279409  0.47702765  0.56380117     0.18900
F1766       F  0.63622443  0.44194347  0.52301075    -0.18900
C1767       C  0.53964058  0.17244888  0.57861886    -0.20300
C1768       C  0.53946612  0.17828633  0.61073040    -0.08300
C1769       C  0.55913472  0.21221512  0.62235795     0.30500
C1770       C  0.57880786  0.23984285  0.60206414    -0.20300
C1771       C  0.57945319  0.23385376  0.57007668    -0.08400
C1772       C  0.55973541  0.20000687  0.55841323     0.30500
F1773       F  0.56041487  0.19361887  0.52758148    -0.18900
H1774       H  0.52474215  0.14641446  0.56935602     0.18900
H1775       H  0.59429516  0.26578174  0.61138699     0.18900
F1776       F  0.04885714  0.21961307  0.65047263    -0.18900
C1777       C  0.91733432  0.11826930  0.56911724    -0.20300
C1778       C  0.91972467  0.15094734  0.56929414    -0.08300
C1779       C  0.94402944  0.17687582  0.58914922     0.30500
C1780       C  0.96457937  0.16968476  0.60898755    -0.20300
C1781       C  0.96189909  0.13688912  0.60889714    -0.08400
C1782       C  0.93826470  0.11133388  0.58849821     0.30500
F1783       F  0.93542895  0.07959191  0.58729563    -0.18900
H1784       H  0.89912258  0.09790653  0.55387201     0.18900
H1785       H  0.98199476  0.18951632  0.62501625     0.18900
F1786       F  0.94690998  0.20862188  0.59042442    -0.18900
C1787       C  0.83277705  0.04476733  0.38139568    -0.20300
C1788       C  0.85896825  0.03771340  0.38985503    -0.08300
C1789       C  0.87530705  0.04897955  0.41885715     0.30500
C1790       C  0.86557309  0.06712857  0.43913979    -0.20300
C1791       C  0.84026664  0.07532222  0.43031967    -0.08400
C1792       C  0.82372858  0.06385303  0.40131533     0.30500
F1793       F  0.79893527  0.07114993  0.39230960    -0.18900
H1794       H  0.81985086  0.03601898  0.35913386     0.18900
H1795       H  0.87896799  0.07623559  0.46116534     0.18900
F1796       F  0.90528261  0.54645848  0.42541011    -0.18900
C1797       C  0.69849997  0.07913364  0.56334055    -0.20300
C1798       C  0.73013689  0.07998138  0.56768003    -0.08300
C1799       C  0.73268687  0.05909752  0.59078920     0.30500
C1800       C  0.70409762  0.03822891  0.60962618    -0.20300
C1801       C  0.67269882  0.03779136  0.60545306    -0.08400
C1802       C  0.66990818  0.05809266  0.58198578     0.30500
F1803       F  0.63951551  0.05740216  0.57708341    -0.18900
H1804       H  0.69594797  0.09484124  0.54544677     0.18900
H1805       H  0.70657699  0.02287221  0.62790621     0.18900
F1806       F  0.76314900  0.06011928  0.59612080    -0.18900
C1807       C  0.94038921  0.29849756  0.44410801    -0.20300
C1808       C  0.92096117  0.26526984  0.43095905    -0.08300
C1809       C  0.92196944  0.26152395  0.39843109     0.30500
C1810       C  0.94175517  0.29046972  0.37962371    -0.20300
C1811       C  0.96064274  0.32358245  0.39276421    -0.08400
C1812       C  0.95977577  0.32750729  0.42516068     0.30500
F1813       F  0.97659790  0.35945871  0.43832651    -0.18900
H1814       H  0.93955322  0.30220753  0.46896402     0.18900
H1815       H  0.94226488  0.28711138  0.35466719     0.18900
F1816       F  0.90387366  0.22991497  0.38473765    -0.18900
C1817       C  0.69907763  0.13069494  0.44200100    -0.20300
C1818       C  0.73254658  0.15392451  0.43096108    -0.08300
C1819       C  0.73683794  0.16747264  0.40069373     0.30500
C1820       C  0.70790080  0.15854093  0.38208561    -0.20300
C1821       C  0.67456295  0.13516674  0.39307585    -0.08400
C1822       C  0.67027219  0.12066761  0.42288440     0.30500
F1823       F  0.63841742  0.09626697  0.43312568    -0.18900
H1824       H  0.69542062  0.11922576  0.46494726     0.18900
H1825       H  0.71144662  0.16946316  0.35891400     0.18900
F1826       F  0.76894923  0.18943942  0.38925664    -0.18900
C1827       C  0.84612503  0.26207259  0.60276997    -0.20300
C1828       C  0.84478277  0.26564647  0.57047856    -0.08300
C1829       C  0.85061012  0.29723480  0.55805152     0.30500
C1830       C  0.85847981  0.32521062  0.57782442    -0.20300
C1831       C  0.86003152  0.32180469  0.61027695    -0.08400
C1832       C  0.85343957  0.28978106  0.62258562     0.30500
F1833       F  0.85424289  0.28536144  0.65380458    -0.18900
H1834       H  0.84190886  0.23787618  0.61259780     0.18900
H1835       H  0.86405996  0.34975035  0.56776026     0.18900
F1836       F  0.84988954  0.30133584  0.52678114    -0.18900
C1837       C  0.67455478  0.03596987  0.92028703    -0.20300
C1838       C  0.68001147  0.03668436  0.88802617    -0.08300
C1839       C  0.71376346  0.05618467  0.87616456     0.30500
C1840       C  0.74151358  0.07562454  0.89623848    -0.20300
C1841       C  0.73615035  0.07571917  0.92853656    -0.08400
C1842       C  0.70236108  0.05521660  0.94048034     0.30500
F1843       F  0.69591512  0.05495593  0.97141804    -0.18900
H1844       H  0.64861775  0.02084542  0.92973925     0.18900
H1845       H  0.76727620  0.09085321  0.88646059     0.18900
F1846       F  0.71985540  0.05609224  0.84518066    -0.18900
C1847       C  0.73530734  0.17686182  0.08689794    -0.20300
C1848       C  0.73333010  0.14979207  0.06858547    -0.08300
C1849       C  0.70370947  0.11658800  0.07094003     0.30500
C1850       C  0.67695820  0.11065737  0.09130804    -0.20300
C1851       C  0.67908458  0.13742969  0.10999144    -0.08400
C1852       C  0.70865663  0.17068686  0.10780421     0.30500
F1853       F  0.71235146  0.19682585  0.12654944    -0.18900
H1854       H  0.75801202  0.20251886  0.08580446     0.18900
H1855       H  0.65435849  0.08492021  0.09254099     0.18900
F1856       F  0.70036389  0.08974636  0.05340324    -0.18900
C1857       C  0.94167871  0.14835288  0.87682993    -0.20300
C1858       C  0.96436755  0.13884973  0.89016287    -0.08300
C1859       C  0.96706594  0.13861566  0.92278393     0.30500
C1860       C  0.94757210  0.14808152  0.94164371    -0.20300
C1861       C  0.92444609  0.15715781  0.92835902    -0.08400
C1862       C  0.92185613  0.15739666  0.89561920     0.30500
F1863       F  0.90017363  0.16633872  0.88166701    -0.18900
H1864       H  0.93938095  0.14880439  0.85173139     0.18900
H1865       H  0.94966967  0.14709434  0.96671174     0.18900
F1866       F  0.98779695  0.12827746  0.93640997    -0.18900
C1867       C  0.82578888  0.05655103  0.08695364    -0.20300
C1868       C  0.85173391  0.08044107  0.06692864    -0.08300
C1869       C  0.88466949  0.08337059  0.06726843     0.30500
C1870       C  0.89149743  0.06312916  0.08748788    -0.20300
C1871       C  0.86585163  0.03971111  0.10783789    -0.08400
C1872       C  0.83288067  0.03663948  0.10761375     0.30500
F1873       F  0.80859622  0.51529278  0.12794723    -0.18900
H1874       H  0.80043390  0.05421514  0.08741198     0.18900
H1875       H  0.91697003  0.06571028  0.08729042     0.18900
F1876       F  0.91034014  0.10569250  0.04793370    -0.18900
C1877       C  0.91475350  0.29569385  0.07235886    -0.20300
C1878       C  0.91915632  0.26663781  0.07093261    -0.08300
C1879       C  0.94462315  0.26599980  0.08978959     0.30500
C1880       C  0.96496755  0.29388446  0.10968438    -0.20300
C1881       C  0.96066252  0.32302587  0.11075083    -0.08400
C1882       C  0.93527643  0.32359483  0.09186945     0.30500
F1883       F  0.93064876  0.35144318  0.09192333    -0.18900
H1884       H  0.89550026  0.29703615  0.05802871     0.18900
H1885       H  0.98386406  0.29256925  0.12453963     0.18900
F1886       F  0.94914601  0.23810167  0.08976657    -0.18900
C1887       C  0.85657378  0.29707737  0.94288967    -0.20300
C1888       C  0.84638425  0.26454894  0.92955737    -0.08300
C1889       C  0.84524614  0.26139050  0.89685325     0.30500
C1890       C  0.85426394  0.29019534  0.87808336    -0.20300
C1891       C  0.86462976  0.32261104  0.89140958    -0.08400
C1892       C  0.86594891  0.32600007  0.92399272     0.30500
F1893       F  0.87723223  0.35740007  0.93747060    -0.18900
H1894       H  0.85828968  0.30036779  0.96794590     0.18900
H1895       H  0.85311625  0.28723005  0.85298508     0.18900
F1896       F  0.83538207  0.23049541  0.88289338    -0.18900
Zn1897     Zn  0.82880021  0.70346041  0.01387140     1.49700
Zn1898     Zn  0.87979607  0.67293878  0.01337779     1.49400
Zn1899     Zn  0.79664817  0.62113029  0.01351376     1.49100
Zn1900     Zn  0.83485459  0.66478329  0.95422251     1.49500
O1901       O  0.83496162  0.66548536  0.99918304    -1.83100
O1902       O  0.86718731  0.73393207  0.04283842    -0.73800
O1903       O  0.87112199  0.63305693  0.04011541    -0.73600
O1904       O  0.76589598  0.62974305  0.04143653    -0.73100
O1905       O  0.90609661  0.71694620  0.03962987    -0.73800
O1906       O  0.78364842  0.68593690  0.03766283    -0.73400
O1907       O  0.81469123  0.59453264  0.03801655    -0.74000
O1908       O  0.79030968  0.62652161  0.93707140    -0.73300
O1909       O  0.90877084  0.67093733  0.97757349    -0.74100
O1910       O  0.76509657  0.59246001  0.97788548    -0.73500
O1911       O  0.87293610  0.65833670  0.93761761    -0.74000
O1912       O  0.84215839  0.70958190  0.93771187    -0.73900
O1913       O  0.83336658  0.73510725  0.97827399    -0.73700
C1914       C  0.89647594  0.73759071  0.05008276     0.78100
C1915       C  0.84530967  0.60369945  0.04718708     0.78600
C1916       C  0.76236906  0.65565805  0.04786479     0.77600
C1917       C  0.76542289  0.59920890  0.94897500     0.78000
C1918       C  0.90106198  0.66259412  0.94905027     0.79100
C1919       C  0.84034707  0.73475616  0.94951834     0.78100
Zn1920     Zn  0.83397921  0.66550434  0.45492532     1.49700
Zn1921     Zn  0.82723378  0.62232987  0.51542054     1.49400
Zn1922     Zn  0.87652799  0.70486918  0.51634248     1.49100
Zn1923     Zn  0.79494125  0.67285717  0.51300878     1.49500
O1924       O  0.83330195  0.66630169  0.50019077    -1.83100
O1925       O  0.83907169  0.62623917  0.43860642    -0.73800
O1926       O  0.86667635  0.63121520  0.54349232    -0.73600
O1927       O  0.90434179  0.73695627  0.48090994    -0.73100
O1928       O  0.82997856  0.59309774  0.48026606    -0.73800
O1929       O  0.87313685  0.71019095  0.43885565    -0.73400
O1930       O  0.90414786  0.68785910  0.54101688    -0.74000
O1931       O  0.81102341  0.71728281  0.53759215    -0.73300
O1932       O  0.78223646  0.59611818  0.53978003    -0.74100
O1933       O  0.86664190  0.73428146  0.54528301    -0.73500
O1934       O  0.76276545  0.63331637  0.53994452    -0.74000
O1935       O  0.76483088  0.66962067  0.47687033    -0.73900
O1936       O  0.78970514  0.65901201  0.43696498    -0.73700
C1937       C  0.83613447  0.59911210  0.45123320     0.78100
C1938       C  0.89566287  0.65753041  0.55065885     0.78600
C1939       C  0.89895385  0.73596150  0.45163938     0.77600
C1940       C  0.84028190  0.73752496  0.55005099     0.78000
C1941       C  0.75990030  0.60451995  0.54788002     0.79100
C1942       C  0.76494813  0.66186149  0.44835370     0.78100
N1943       N  0.90624714  0.94818068  0.75123753    -0.35600
N1944       N  0.93345995  0.49983703  0.79924711    -0.56200
N1945       N  0.95795666  0.55152843  0.75095951    -0.35600
N1946       N  0.92986665  0.49990832  0.70257290    -0.56200
C1947       C  0.88960472  0.92945709  0.77680543     0.28000
C1948       C  0.88856187  0.92936653  0.72612475     0.28000
C1949       C  0.96084358  0.57040822  0.77656021     0.28000
C1950       C  0.95916306  0.57049971  0.72596389     0.28000
C1951       C  0.92548807  0.97185894  0.81696562     0.36600
C1952       C  0.95435825  0.52785912  0.81659232     0.36600
C1953       C  0.92245252  0.97168730  0.68498990     0.36600
C1954       C  0.94949742  0.52803815  0.68473907     0.36600
C1955       C  0.86044703  0.89883864  0.76790960    -0.20900
C1956       C  0.85979338  0.89877394  0.73579847    -0.20900
C1957       C  0.96292698  0.60131505  0.76781596    -0.20900
C1958       C  0.96190332  0.60138692  0.73574857    -0.20900
C1959       C  0.94075017  0.98208683  0.84604461    -0.21900
C1960       C  0.95955020  0.51764554  0.84561567    -0.21900
C1961       C  0.93634030  0.98175764  0.65537408    -0.21900
C1962       C  0.95293777  0.51789794  0.65507062    -0.21900
C1963       C  0.90287674  0.93747852  0.80738941    -0.17300
C1964       C  0.90056141  0.93726422  0.69510641    -0.17300
C1965       C  0.96268235  0.56249637  0.69488964    -0.17300
C1966       C  0.96629389  0.56224149  0.80698552    -0.17300
H1967       H  0.84254978  0.87799352  0.78294665     0.15600
H1968       H  0.84128472  0.87786509  0.72121543     0.15600
H1969       H  0.96660832  0.62234819  0.78289059     0.15600
H1970       H  0.96463847  0.62247074  0.72124417     0.15600
H1971       H  0.93832785  0.96562179  0.86552383     0.13900
H1972       H  0.97403865  0.53413510  0.86492967     0.13900
H1973       H  0.93321736  0.96515435  0.63580637     0.13900
H1974       H  0.96620541  0.53443786  0.63536738     0.13900
H1975       H  0.93123819  0.96958004  0.75082062     0.27200
H1976       H  0.96104009  0.52988591  0.75038695     0.27200
N1977       N  0.59615751  0.54287054  0.74793725    -0.35600
N1978       N  0.56980246  0.56979454  0.70098969    -0.56200
N1979       N  0.54762121  0.59738030  0.75055224    -0.35600
N1980       N  0.57472444  0.57133708  0.79770091    -0.56200
C1981       C  0.61164918  0.54038982  0.72176572     0.28000
C1982       C  0.61439369  0.54132624  0.77240083     0.28000
C1983       C  0.54511777  0.61445614  0.72557471     0.28000
C1984       C  0.54692201  0.61450880  0.77623159     0.28000
C1985       C  0.57576054  0.54861059  0.68288756     0.36600
C1986       C  0.54952979  0.57830877  0.68435553     0.36600
C1987       C  0.58255654  0.55071974  0.81468408     0.36600
C1988       C  0.55523042  0.57943738  0.81606229     0.36600
C1989       C  0.64064436  0.53827569  0.72961711    -0.20900
C1990       C  0.64236001  0.53883555  0.76169965    -0.20900
C1991       C  0.54394106  0.64343371  0.73542658    -0.20900
C1992       C  0.54503392  0.64344006  0.76752976    -0.20900
C1993       C  0.55981897  0.54415915  0.65423013    -0.21900
C1994       C  0.54317292  0.56310123  0.65514967    -0.21900
C1995       C  0.56883253  0.54646578  0.84440970    -0.21900
C1996       C  0.55142403  0.56471056  0.84527605    -0.21900
C1997       C  0.59756831  0.53563344  0.69151735    -0.17300
C1998       C  0.60350032  0.53749725  0.80375004    -0.17300
C1999       C  0.54265253  0.60149176  0.80686063    -0.17300
C2000       C  0.53888464  0.60148513  0.69483861    -0.17300
H2001       H  0.65775488  0.53497352  0.71390564     0.15600
H2002       H  0.66102538  0.53602802  0.77559100     0.15600
H2003       H  0.54067309  0.66153088  0.72106964     0.15600
H2004       H  0.54277153  0.66154181  0.78275771     0.15600
H2005       H  0.56084298  0.52961533  0.63450328     0.13900
H2006       H  0.52887862  0.56608559  0.63625126     0.13900
H2007       H  0.57153237  0.53222036  0.86354523     0.13900
H2008       H  0.53811821  0.56737740  0.86523086     0.13900
H2009       H  0.57151696  0.53994578  0.74912159     0.27200
H2010       H  0.54374108  0.57233480  0.75035119     0.27200
N2011       N  0.94948437  0.90225124  0.75007943    -0.35600
N2012       N  0.50231061  0.92744867  0.79767112    -0.56200
N2013       N  0.55252041  0.95236647  0.74839451    -0.35600
N2014       N  0.49964017  0.92641286  0.70101424    -0.56200
C2015       C  0.93114468  0.88555148  0.77574175     0.28000
C2016       C  0.92987487  0.88522393  0.72512759     0.28000
C2017       C  0.57205179  0.95460052  0.77325480     0.28000
C2018       C  0.57058795  0.95386098  0.72262853     0.28000
C2019       C  0.97470663  0.92030157  0.81551493     0.36600
C2020       C  0.53082937  0.94787289  0.81465238     0.36600
C2021       C  0.97152705  0.91936265  0.68383169     0.36600
C2022       C  0.52739545  0.94661013  0.68306492     0.36600
C2023       C  0.89994131  0.85697052  0.76705828    -0.20900
C2024       C  0.89913773  0.85676492  0.73495673    -0.20900
C2025       C  0.60244655  0.95638165  0.76325175    -0.20900
C2026       C  0.60153028  0.95593746  0.73112836    -0.20900
C2027       C  0.98567184  0.93538759  0.84457951    -0.21900
C2028       C  0.52147583  0.95301508  0.84409663    -0.21900
C2029       C  0.98123066  0.93423313  0.65453001    -0.21900
C2030       C  0.51679841  0.95152706  0.65411862    -0.21900
C2031       C  0.94003745  0.89856702  0.80630894    -0.17300
C2032       C  0.93730028  0.89781046  0.69432038    -0.17300
C2033       C  0.56190017  0.95877149  0.69225171    -0.17300
C2034       C  0.56492560  0.95999010  0.80410150    -0.17300
H2035       H  0.87919786  0.83925096  0.78227438     0.15600
H2036       H  0.87766842  0.83885310  0.72054675     0.15600
H2037       H  0.62382972  0.95962980  0.77755480     0.15600
H2038       H  0.62209542  0.95882982  0.71579794     0.15600
H2039       H  0.96970023  0.93338951  0.86433562     0.13900
H2040       H  0.53849861  0.96725931  0.86320091     0.13900
H2041       H  0.96442192  0.93213324  0.63549652     0.13900
H2042       H  0.53300230  0.96561131  0.63447544     0.13900
H2043       H  0.97117154  0.92703896  0.74972493     0.27200
H2044       H  0.53123322  0.95599351  0.74887740     0.27200
C2045       C  0.98207482  0.62941243  0.63175953     0.03300
C2046       C  0.51813936  0.64883348  0.63268397     0.03200
C2047       C  0.53637714  0.63960863  0.65354225    -0.17300
C2048       C  0.51877185  0.61109726  0.67352322     0.03300
C2049       C  0.98239752  0.59173803  0.67288506     0.03200
C2050       C  0.96434928  0.60101690  0.65199325    -0.17300
H2051       H  0.93626223  0.58624923  0.65176218     0.05300
H2052       H  0.56445621  0.65447240  0.65400340     0.05300
C2053       C  0.62734937  0.98048398  0.62766793     0.03300
C2054       C  0.64259198  0.51729992  0.62557176     0.03200
C2055       C  0.63188541  0.53460623  0.64609975    -0.17300
C2056       C  0.60614725  0.51621205  0.66838930     0.03300
C2057       C  0.59026532  0.97924036  0.66989136     0.03200
C2058       C  0.60068311  0.96193750  0.64922780    -0.17300
H2059       H  0.58805179  0.93388687  0.65005341     0.05300
H2060       H  0.64456459  0.56266876  0.64552627     0.05300
C2061       C  0.87486181  0.85266916  0.87087141     0.03300
C2062       C  0.85682920  0.87122867  0.87154111     0.03200
C2063       C  0.86674800  0.89916724  0.85090343    -0.17300
C2064       C  0.89377373  0.90849164  0.82952878     0.03300
C2065       C  0.91167594  0.88987539  0.82897291     0.03200
C2066       C  0.90215983  0.86231933  0.84964084    -0.17300
H2067       H  0.91602009  0.84814421  0.84904871     0.05300
H2068       H  0.85294158  0.91339252  0.85106971     0.05300
C2069       C  0.85190103  0.87055694  0.63198585     0.03300
C2070       C  0.86918623  0.85118950  0.63208687     0.03200
C2071       C  0.89730417  0.86099386  0.65238140    -0.17300
C2072       C  0.90794954  0.88893951  0.67284741     0.03300
C2073       C  0.89053539  0.90804380  0.67297184     0.03200
C2074       C  0.86292116  0.89883251  0.65242021    -0.17300
H2075       H  0.84955123  0.91348810  0.65269184     0.05300
H2076       H  0.91115962  0.84681511  0.65225928     0.05300
C2077       C  0.63167828  0.98008115  0.86711718     0.03300
C2078       C  0.65053097  0.51701331  0.86659534     0.03200
C2079       C  0.64122894  0.53520369  0.84565483    -0.17300
C2080       C  0.61317637  0.51748975  0.82524562     0.03300
C2081       C  0.59439728  0.98004656  0.82564033     0.03200
C2082       C  0.60393176  0.96215668  0.84642895    -0.17300
H2083       H  0.58967953  0.93403779  0.84642334     0.05300
H2084       H  0.65570522  0.56330919  0.84542142     0.05300
C2085       C  0.52175830  0.64764534  0.87013062     0.03300
C2086       C  0.98505304  0.62885763  0.86994104     0.03200
C2087       C  0.96754401  0.60089447  0.84934554    -0.17300
C2088       C  0.98583334  0.59112614  0.82917280     0.03300
C2089       C  0.52249141  0.60997825  0.82924036     0.03200
C2090       C  0.54000534  0.63782443  0.84973186    -0.17300
H2091       H  0.56810151  0.65228682  0.84946374     0.05300
H2092       H  0.93944848  0.58665099  0.84891100     0.05300
Zn2093     Zn  0.62286046  0.82811297  0.51444495     1.49700
Zn2094     Zn  0.67104393  0.79385048  0.51533413     1.49400
Zn2095     Zn  0.66591846  0.83175294  0.45381058     1.49100
Zn2096     Zn  0.70541913  0.87661355  0.51313317     1.49500
O2097       O  0.66629953  0.83247779  0.49935776    -1.83100
O2098       O  0.59498459  0.78452854  0.54052224    -0.73800
O2099       O  0.66816711  0.76240056  0.47999444    -0.73600
O2100       O  0.62633080  0.83618907  0.43676819    -0.73100
O2101       O  0.63055298  0.76316575  0.54268862    -0.73800
O2102       O  0.59480620  0.83087563  0.47875237    -0.73400
O2103       O  0.66142281  0.78752500  0.43784022    -0.74000
O2104       O  0.73672684  0.90369426  0.47709243    -0.73300
O2105       O  0.71502328  0.81094379  0.54141838    -0.74100
O2106       O  0.70988664  0.87078644  0.43606097    -0.73500
O2107       O  0.73550133  0.86780455  0.54162574    -0.74000
O2108       O  0.68944319  0.90531619  0.53718851    -0.73900
O2109       O  0.63267916  0.86861157  0.54136926    -0.73700
C2110       C  0.60235112  0.76193157  0.55007322     0.78100
C2111       C  0.66298503  0.76271732  0.45081940     0.78600
C2112       C  0.60021129  0.83547958  0.44951510     0.77600
C2113       C  0.73546367  0.89744974  0.44800496     0.78000
C2114       C  0.73734478  0.84149569  0.55027910     0.79100
C2115       C  0.65956116  0.89750415  0.54741892     0.78100
Zn2116     Zn  0.66829042  0.83447095  0.04573689     1.49700
Zn2117     Zn  0.67425907  0.79544481  0.98675868     1.49400
Zn2118     Zn  0.62424962  0.82820805  0.98662219     1.51900
Zn2119     Zn  0.70738281  0.87773617  0.98572207     1.49500
O2120       O  0.66857404  0.83401049  0.00077823    -1.83100
O2121       O  0.66072850  0.78948363  0.06292070    -0.73800
O2122       O  0.63455227  0.76506401  0.95934328    -0.73600
O2123       O  0.59579782  0.83165535  0.02205371    -0.73100
O2124       O  0.67041665  0.76417413  0.02276871    -0.73800
O2125       O  0.63065325  0.84198039  0.06236127    -0.73400
O2126       O  0.59684226  0.78374414  0.96177120    -0.74000
O2127       O  0.69037298  0.90446114  0.95993218    -0.73300
O2128       O  0.71882549  0.81167666  0.96171947    -0.74100
O2129       O  0.63353870  0.86761452  0.95878232    -0.73500
O2130       O  0.73847825  0.86829597  0.95885447    -0.74000
O2131       O  0.73841783  0.90670022  0.02125349    -0.73900
O2132       O  0.71330603  0.87247403  0.06204065    -0.73700
C2133       C  0.66316496  0.76448484  0.05147276     0.78100
C2134       C  0.60553721  0.76211360  0.95216133     0.78600
C2135       C  0.60311934  0.83907980  0.05073989     0.77600
C2136       C  0.65996269  0.89614446  0.95080548     0.78000
C2137       C  0.74106586  0.84190377  0.95205096     0.79100
C2138       C  0.73814941  0.89981403  0.05012280     0.78100
N2139       N  0.55290818  0.59666928  0.25118711    -0.35600
N2140       N  0.00268318  0.57181113  0.20207183    -0.56200
N2141       N  0.94978563  0.54709761  0.24948011    -0.35600
N2142       N  0.00009956  0.57313736  0.29878860    -0.56200
C2143       C  0.57261945  0.61335797  0.22610355     0.28000
C2144       C  0.57113516  0.61375180  0.27673153     0.28000
C2145       C  0.93167904  0.54499868  0.22355908     0.28000
C2146       C  0.93031789  0.54553250  0.27426792     0.28000
C2147       C  0.53094130  0.57884937  0.18500680     0.36600
C2148       C  0.97496465  0.55171615  0.18409605     0.36600
C2149       C  0.52735817  0.58004733  0.31677548     0.36600
C2150       C  0.97152427  0.55301837  0.31590053     0.36600
C2151       C  0.60327933  0.64199754  0.23573811    -0.20900
C2152       C  0.60235628  0.64221540  0.26784468    -0.20900
C2153       C  0.90078156  0.54316621  0.23189811    -0.20900
C2154       C  0.89991157  0.54347624  0.26403007    -0.20900
C2155       C  0.52126621  0.56406628  0.15569603    -0.21900
C2156       C  0.98568292  0.54683612  0.15516956    -0.21900
C2157       C  0.51621749  0.56518544  0.34592377    -0.21900
C2158       C  0.98077652  0.54779946  0.34534074    -0.21900
C2159       C  0.56519404  0.60055419  0.19535317    -0.17300
C2160       C  0.56210554  0.60118896  0.30745400    -0.17300
C2161       C  0.93745690  0.54093024  0.30538274    -0.17300
C2162       C  0.94041344  0.53976332  0.19320011    -0.17300
H2163       H  0.62476134  0.65979563  0.22121748     0.15600
H2164       H  0.62299343  0.66017460  0.28296431     0.15600
H2165       H  0.88023505  0.54003913  0.21648210     0.15600
H2166       H  0.87858375  0.54063663  0.27823671     0.15600
H2167       H  0.53810011  0.56614473  0.13664369     0.13900
H2168       H  0.96957100  0.53295025  0.13546933     0.13900
H2169       H  0.53206427  0.56691984  0.36565409     0.13900
H2170       H  0.96370464  0.53372513  0.36451748     0.13900
H2171       H  0.53114749  0.57193709  0.25110340     0.27200
H2172       H  0.97112231  0.54358424  0.25026234     0.27200
N2173       N  0.95697753  0.90525207  0.25181821    -0.35600
N2174       N  0.93191353  0.93066815  0.20248872    -0.56200
N2175       N  0.90566867  0.95702962  0.24974753    -0.35600
N2176       N  0.93005265  0.93102465  0.29913660    -0.56200
C2177       C  0.95890733  0.88800458  0.22670470     0.28000
C2178       C  0.95752521  0.88785122  0.27740326     0.28000
C2179       C  0.88901236  0.95858633  0.22407836     0.28000
C2180       C  0.88843982  0.95927467  0.27469822     0.28000
C2181       C  0.95261552  0.92298341  0.18552957     0.36600
C2182       C  0.92446036  0.95077119  0.18438518     0.36600
C2183       C  0.94958476  0.92293935  0.31738089     0.36600
C2184       C  0.92233732  0.95169623  0.31613773     0.36600
C2185       C  0.95968824  0.85876415  0.23635313    -0.20900
C2186       C  0.95881916  0.85866911  0.26847860    -0.20900
C2187       C  0.86030632  0.96085880  0.23276825    -0.20900
C2188       C  0.85994049  0.96129226  0.26485550    -0.20900
C2189       C  0.95782231  0.93766023  0.15613493    -0.21900
C2190       C  0.93985996  0.95531742  0.15539879    -0.21900
C2191       C  0.95370760  0.93789661  0.34650697    -0.21900
C2192       C  0.93638063  0.95620852  0.34571299    -0.21900
C2193       C  0.96436715  0.90067886  0.19585560    -0.17300
C2194       C  0.96162481  0.90046115  0.30818840    -0.17300
C2195       C  0.90067547  0.96417378  0.30559714    -0.17300
C2196       C  0.90209238  0.96292328  0.19349111    -0.17300
H2197       H  0.96228730  0.84038377  0.22180413     0.15600
H2198       H  0.96065517  0.84022301  0.28357331     0.15600
H2199       H  0.84257629  0.96373284  0.21757218     0.15600
H2200       H  0.84184284  0.96452734  0.27925961     0.15600
H2201       H  0.97221758  0.93513956  0.13701732     0.13900
H2202       H  0.93767413  0.96911538  0.13561764     0.13900
H2203       H  0.96698109  0.93518105  0.36641875     0.13900
H2204       H  0.93364443  0.97036651  0.36490513     0.13900
H2205       H  0.96094562  0.93034212  0.25160199     0.27200
H2206       H  0.93046152  0.96029508  0.25018375     0.27200
C2207       C  0.86980127  0.51877766  0.36848833     0.03300
C2208       C  0.85183231  0.98211520  0.36806331     0.03200
C2209       C  0.86259304  0.96485197  0.34763841    -0.17300
C2210       C  0.89050780  0.98347815  0.32731415     0.03300
C2211       C  0.90796280  0.52042366  0.32695352     0.03200
C2212       C  0.89761494  0.53760485  0.34796377    -0.17300
H2213       H  0.91117078  0.56570487  0.34825124     0.05300
H2214       H  0.84909509  0.93674596  0.34746536     0.05300
N2215       N  0.59753182  0.55173439  0.25100563    -0.35600
N2216       N  0.57043370  0.99932350  0.29965124    -0.56200
N2217       N  0.54649578  0.94804046  0.25129626    -0.35600
N2218       N  0.57425814  0.00009307  0.20297992    -0.56200
C2219       C  0.61356852  0.57062819  0.27657025     0.28000
C2220       C  0.61545344  0.57060173  0.22598679     0.28000
C2221       C  0.54345694  0.92882081  0.27671065     0.28000
C2222       C  0.54469209  0.92916094  0.22604843     0.28000
C2223       C  0.57747277  0.52812356  0.31664982     0.36600
C2224       C  0.55000971  0.97112913  0.31704302     0.36600
C2225       C  0.58238178  0.52806044  0.18499187     0.36600
C2226       C  0.55412683  0.97209558  0.18524153     0.36600
C2227       C  0.64269373  0.60140826  0.26781060    -0.20900
C2228       C  0.64385906  0.60141162  0.23571241    -0.20900
C2229       C  0.54073275  0.89774367  0.26756993    -0.20900
C2230       C  0.54146637  0.89793962  0.23545627    -0.20900
C2231       C  0.56214936  0.51797188  0.34575460    -0.21900
C2232       C  0.54455015  0.98101892  0.34613216    -0.21900
C2233       C  0.56813714  0.51777083  0.15557166    -0.21900
C2234       C  0.55020850  0.98245339  0.15582149    -0.21900
C2235       C  0.59967198  0.56250451  0.30692404    -0.17300
C2236       C  0.60364328  0.56259714  0.19502342    -0.17300
C2237       C  0.54076688  0.93752224  0.19520420    -0.17300
C2238       C  0.53819987  0.93684306  0.30729550    -0.17300
H2239       H  0.66015095  0.62241160  0.28288778     0.15600
H2240       H  0.66236239  0.62242168  0.22115631     0.15600
H2241       H  0.53668006  0.87640827  0.28242090     0.15600
H2242       H  0.53809520  0.87679212  0.22069858     0.15600
H2243       H  0.56399676  0.53448078  0.36499156     0.13900
H2244       H  0.53033159  0.96436355  0.36548891     0.13900
H2245       H  0.57071152  0.53422848  0.13603535     0.13900
H2246       H  0.53632426  0.96604301  0.13626547     0.13900
H2247       H  0.57261504  0.53018608  0.25046541     0.27200
H2248       H  0.54368002  0.96985818  0.25100642     0.27200
C2249       C  0.85592847  0.98253865  0.12947059     0.03300
C2250       C  0.87503571  0.51932712  0.12873207     0.03200
C2251       C  0.90267332  0.53741598  0.14951226    -0.17300
C2252       C  0.91196623  0.51968894  0.17068349     0.03300
C2253       C  0.89329560  0.98261514  0.17097779     0.03200
C2254       C  0.86562982  0.96463129  0.15030704    -0.17300
H2255       H  0.85142848  0.93651930  0.15060259     0.05300
H2256       H  0.91662079  0.56553335  0.14967289     0.05300
C2257       C  0.64559128  0.62689572  0.37160253     0.03300
C2258       C  0.62705508  0.64492663  0.37251723     0.03200
C2259       C  0.59944860  0.63575652  0.35186978    -0.17300
C2260       C  0.59038203  0.60928167  0.33000454     0.03300
C2261       C  0.60877551  0.59113534  0.32926874     0.03200
C2262       C  0.63596375  0.59995104  0.35011346    -0.17300
H2263       H  0.64999339  0.58595040  0.34933295     0.05300
H2264       H  0.58555555  0.64989804  0.35224882     0.05300
C2265       C  0.64968851  0.62921656  0.13115020     0.03300
C2266       C  0.63134333  0.64754681  0.13149210     0.03200
C2267       C  0.60396380  0.63767724  0.15274272    -0.17300
C2268       C  0.59447296  0.61009144  0.17345359     0.03300
C2269       C  0.61265144  0.59173014  0.17305953     0.03200
C2270       C  0.63991341  0.60141263  0.15194699    -0.17300
H2271       H  0.65387610  0.58733629  0.15194735     0.05300
H2272       H  0.58973019  0.65147921  0.15309612     0.05300
C2273       C  0.98046863  0.85400550  0.37272363     0.03300
C2274       C  0.51750565  0.87073504  0.37114248     0.03200
C2275       C  0.53569156  0.89761015  0.34970301    -0.17300
C2276       C  0.51803772  0.90802311  0.32944760     0.03300
C2277       C  0.98097509  0.89108625  0.33072068     0.03200
C2278       C  0.96275314  0.86429765  0.35227224    -0.17300
H2279       H  0.93467628  0.85094434  0.35268596     0.05300
H2280       H  0.56372619  0.91038270  0.34863761     0.05300
C2281       C  0.51882501  0.87107905  0.13118625     0.03300
C2282       C  0.98220778  0.85306903  0.13167570     0.03200
C2283       C  0.96505165  0.86331357  0.15297990    -0.17300
C2284       C  0.98359744  0.89061294  0.17387616     0.03300
C2285       C  0.52018083  0.90861654  0.17322250     0.03200
C2286       C  0.53736207  0.89861804  0.15203234    -0.17300
H2287       H  0.56546199  0.91238014  0.15183191     0.05300
H2288       H  0.93697032  0.84962462  0.15367066     0.05300
C2289       C  0.64802775  0.70928527  0.12352696    -0.20300
C2290       C  0.64014891  0.67731858  0.11050112    -0.08300
C2291       C  0.64017961  0.67416659  0.07790191     0.30500
C2292       C  0.64862595  0.70282578  0.05883466    -0.20300
C2293       C  0.65646938  0.73489800  0.07188472    -0.08400
C2294       C  0.65605102  0.73777723  0.10457046     0.30500
F2295       F  0.66352354  0.76813259  0.11838064    -0.18900
H2296       H  0.64810479  0.71219849  0.14859171     0.18900
H2297       H  0.64813329  0.69964470  0.03379385     0.18900
F2298       F  0.63112029  0.64320978  0.06448379    -0.18900
C2299       C  0.56119850  0.85123986  0.12283872    -0.20300
C2300       C  0.53888024  0.86146552  0.10999648    -0.08300
C2301       C  0.53691840  0.86342210  0.07743959     0.30500
C2302       C  0.55707688  0.85512050  0.05814056    -0.20300
C2303       C  0.57984915  0.84528276  0.07104415    -0.08400
C2304       C  0.58150467  0.84324986  0.10370734     0.30500
F2305       F  0.60269859  0.83345980  0.11729948    -0.18900
H2306       H  0.56294211  0.84954479  0.14788867     0.18900
H2307       H  0.55562975  0.85737790  0.03313653     0.18900
F2308       F  0.01651889  0.87422182  0.06463048    -0.18900
C2309       C  0.80050780  0.94527514  0.05703052    -0.20300
C2310       C  0.76778137  0.92307454  0.07021423    -0.08300
C2311       C  0.76434647  0.92137876  0.10290745     0.30500
C2312       C  0.79320532  0.94062234  0.12182640    -0.20300
C2313       C  0.82590376  0.96226986  0.10866978    -0.08400
C2314       C  0.82940674  0.96461311  0.07606398     0.30500
F2315       F  0.86143039  0.48494862  0.06180519    -0.18900
H2316       H  0.80396905  0.94684221  0.03198624     0.18900
H2317       H  0.79001537  0.93890576  0.14690874     0.18900
F2318       F  0.73307758  0.90120668  0.11669205    -0.18900
C2319       C  0.63081424  0.69941557  0.44141593    -0.20300
C2320       C  0.65632573  0.73263527  0.43175447    -0.08300
C2321       C  0.67226838  0.73688667  0.40254175     0.30500
C2322       C  0.66329417  0.70801424  0.38368631    -0.20300
C2323       C  0.63742329  0.67492271  0.39323235    -0.08400
C2324       C  0.62065914  0.67087532  0.42189956     0.30500
F2325       F  0.59415974  0.63942913  0.43076052    -0.18900
H2326       H  0.61754961  0.69587400  0.46344526     0.18900
H2327       H  0.67592010  0.71149183  0.36132390     0.18900
F2328       F  0.69633729  0.76887901  0.39227162    -0.18900
C2329       C  0.54304289  0.87057743  0.42269257    -0.20300
C2330       C  0.53713196  0.85996276  0.39150223    -0.08300
C2331       C  0.55088748  0.84005741  0.37965395     0.30500
C2332       C  0.57080420  0.83139759  0.39878459    -0.20300
C2333       C  0.57673985  0.84199347  0.43010728    -0.08400
C2334       C  0.56236990  0.86143311  0.44199174     0.30500
F2335       F  0.56861029  0.87325504  0.47177022    -0.18900
H2336       H  0.53329856  0.88663194  0.43191496     0.18900
H2337       H  0.58174575  0.81655857  0.38911024     0.18900
F2338       F  0.54527387  0.82931743  0.34954917    -0.18900
C2339       C  0.78830145  0.94527981  0.37679811    -0.20300
C2340       C  0.82202523  0.96138346  0.38880433    -0.08300
C2341       C  0.82715928  0.95712714  0.42035601     0.30500
C2342       C  0.79875166  0.93734895  0.43977309    -0.20300
C2343       C  0.76488584  0.92079074  0.42779535    -0.08400
C2344       C  0.75987086  0.92495399  0.39604684     0.30500
F2345       F  0.72752947  0.90961796  0.38368481    -0.18900
H2346       H  0.78408096  0.94835690  0.35244295     0.18900
H2347       H  0.80330456  0.93395608  0.46395859     0.18900
F2348       F  0.85967125  0.97120022  0.43210397    -0.18900
C2349       C  0.58598421  0.70321253  0.93161054    -0.20300
C2350       C  0.58198505  0.73250345  0.93232053    -0.08300
C2351       C  0.55689994  0.73334270  0.91307026     0.30500
C2352       C  0.53728119  0.70579399  0.89267535    -0.20300
C2353       C  0.54188696  0.67683851  0.89178262    -0.08400
C2354       C  0.56611066  0.67564399  0.91172990     0.30500
F2355       F  0.57031369  0.64753920  0.91217740    -0.18900
H2356       H  0.60468653  0.70160344  0.94652784     0.18900
H2357       H  0.51879417  0.70721067  0.87732338     0.18900
F2358       F  0.55221619  0.76114803  0.91310538    -0.18900
C2359       C  0.67280487  0.96282656  0.88938729    -0.20300
C2360       C  0.63993729  0.95986802  0.88929082    -0.08300
C2361       C  0.61459820  0.93722781  0.91035198     0.30500
C2362       C  0.62173554  0.91725373  0.93063932    -0.20300
C2363       C  0.65436317  0.91963135  0.93053193    -0.08400
C2364       C  0.68015668  0.94308251  0.91004033     0.30500
F2365       F  0.71188136  0.94592190  0.90907268    -0.18900
H2366       H  0.69256906  0.98005198  0.87312597     0.18900
H2367       H  0.60156140  0.89974947  0.94646743     0.18900
F2368       F  0.58294986  0.93458952  0.91137555    -0.18900
C2369       C  0.79214107  0.82955503  0.61158449    -0.20300
C2370       C  0.82249582  0.86223500  0.61080055    -0.08300
C2371       C  0.82476074  0.88736087  0.58976064     0.30500
C2372       C  0.79708578  0.88005795  0.57008507    -0.20300
C2373       C  0.76656487  0.84748718  0.57075845    -0.08400
C2374       C  0.76436703  0.82209356  0.59164150     0.30500
F2375       F  0.73508524  0.79061601  0.59356868    -0.18900
H2376       H  0.78988245  0.80997524  0.62787642     0.18900
H2377       H  0.79965513  0.90001259  0.55409782     0.18900
F2378       F  0.85404342  0.91887677  0.58792878    -0.18900
C2379       C  0.79758468  0.82927373  0.89294480    -0.20300
C2380       C  0.82763087  0.86224925  0.89335850    -0.08300
C2381       C  0.82954948  0.88729319  0.91428633     0.30500
C2382       C  0.80154079  0.87998961  0.93360436    -0.20300
C2383       C  0.77104040  0.84743185  0.93277948    -0.08400
C2384       C  0.76951739  0.82174808  0.91265646     0.30500
F2385       F  0.74050905  0.79002444  0.91103430    -0.18900
H2386       H  0.79563198  0.80962840  0.87690290     0.18900
H2387       H  0.80370505  0.90003416  0.94925391     0.18900
F2388       F  0.85873490  0.91886342  0.91614387    -0.18900
C2389       C  0.66020077  0.92181230  0.59940192    -0.20300
C2390       C  0.65540417  0.92195404  0.56717318    -0.08300
C2391       C  0.64249947  0.94228907  0.55463849     0.30500
C2392       C  0.63411056  0.96199705  0.57432622    -0.20300
C2393       C  0.63805059  0.96117267  0.60671393    -0.08400
C2394       C  0.65148919  0.94120665  0.61911822     0.30500
F2395       F  0.65587806  0.94030338  0.65031895    -0.18900
H2396       H  0.66966834  0.90580936  0.60934223     0.18900
H2397       H  0.62366817  0.97717726  0.56443979     0.18900
F2398       F  0.63713986  0.94226067  0.52351133    -0.18900
C2399       C  0.54217331  0.67156225  0.57993693    -0.20300
C2400       C  0.53803394  0.67811941  0.61111883    -0.08300
C2401       C  0.55351864  0.71251979  0.62169975     0.30500
C2402       C  0.57305741  0.74002800  0.60122610    -0.20300
C2403       C  0.57800992  0.73340219  0.57026676    -0.08400
C2404       C  0.56237303  0.69900092  0.55968680     0.30500
F2405       F  0.56699313  0.69203288  0.52985450    -0.18900
H2406       H  0.53036138  0.64513465  0.57153356     0.18900
H2407       H  0.58536103  0.76642318  0.60978310     0.18900
F2408       F  0.04457028  0.71948226  0.64923255    -0.18900
C2409       C  0.91813787  0.61969785  0.56922004    -0.20300
C2410       C  0.91963988  0.65192891  0.57034311    -0.08300
C2411       C  0.94290418  0.67739263  0.59112038     0.30500
C2412       C  0.96338823  0.67012415  0.61093139    -0.20300
C2413       C  0.96163094  0.63778453  0.60982338    -0.08400
C2414       C  0.93901475  0.61272739  0.58856585     0.30500
F2415       F  0.93708180  0.58142630  0.58656702    -0.18900
H2416       H  0.90068313  0.59974436  0.55325097     0.18900
H2417       H  0.97995972  0.68944605  0.62771561     0.18900
F2418       F  0.94473952  0.70862846  0.59331658    -0.18900
C2419       C  0.83198527  0.54290371  0.38353876    -0.20300
C2420       C  0.85977374  0.53774724  0.39048213    -0.08300
C2421       C  0.87805372  0.55080610  0.41844110     0.30500
C2422       C  0.86869328  0.56891799  0.43915404    -0.20300
C2423       C  0.84176801  0.57523871  0.43172617    -0.08400
C2424       C  0.82329154  0.56196342  0.40381960     0.30500
F2425       F  0.79704753  0.56764161  0.39617393    -0.18900
H2426       H  0.81756965  0.53277779  0.36211152     0.18900
H2427       H  0.88352448  0.57943947  0.46032556     0.18900
F2428       F  0.90120924  0.04307822  0.42720817    -0.18900
C2429       C  0.69822703  0.58054482  0.56309463    -0.20300
C2430       C  0.72956014  0.58057627  0.56672334    -0.08300
C2431       C  0.73167484  0.55872362  0.58910038     0.30500
C2432       C  0.70308048  0.53781257  0.60791579    -0.20300
C2433       C  0.67199444  0.53816299  0.60446467    -0.08400
C2434       C  0.66958875  0.55940775  0.58170680     0.30500
F2435       F  0.63952409  0.55956620  0.57746014    -0.18900
H2436       H  0.69592314  0.59694886  0.54578265     0.18900
H2437       H  0.70535503  0.52180382  0.62566089     0.18900
F2438       F  0.76175416  0.55875054  0.59376541    -0.18900
C2439       C  0.93631042  0.79974525  0.44408627    -0.20300
C2440       C  0.92206969  0.76601393  0.43205219    -0.08300
C2441       C  0.92757195  0.76156778  0.40050388     0.30500
C2442       C  0.94682542  0.79040994  0.38143220    -0.20300
C2443       C  0.96036099  0.82397365  0.39335936    -0.08400
C2444       C  0.95491723  0.82857169  0.42477597     0.30500
F2445       F  0.96684548  0.86085205  0.43651890    -0.18900
H2446       H  0.93183100  0.80376936  0.46813734     0.18900
H2447       H  0.95102095  0.78662235  0.35723376     0.18900
F2448       F  0.91441466  0.72936880  0.38813557    -0.18900
C2449       C  0.70270104  0.64423527  0.44241120    -0.20300
C2450       C  0.73495734  0.65444362  0.42849736    -0.08300
C2451       C  0.73730865  0.65484800  0.39575701     0.30500
C2452       C  0.70823583  0.64650420  0.37755253    -0.20300
C2453       C  0.67616319  0.63663105  0.39153598    -0.08400
C2454       C  0.67338945  0.63456074  0.42414300     0.30500
F2455       F  0.64212292  0.62131327  0.43831563    -0.18900
H2456       H  0.69981125  0.64229367  0.46751209     0.18900
H2457       H  0.71063506  0.64741315  0.35240094     0.18900
F2458       F  0.76755819  0.66314180  0.38126619    -0.18900
C2459       C  0.84596739  0.76173638  0.60304308    -0.20300
C2460       C  0.84418279  0.76539812  0.57080957    -0.08300
C2461       C  0.84951339  0.79690080  0.55863307     0.30500
C2462       C  0.85727997  0.82469313  0.57858570    -0.20300
C2463       C  0.85922389  0.82119124  0.61097474    -0.08400
C2464       C  0.85316488  0.78926175  0.62305064     0.30500
F2465       F  0.85447410  0.78479114  0.65420368    -0.18900
H2466       H  0.84222412  0.73763047  0.61266511     0.18900
H2467       H  0.86257496  0.84921097  0.56868637     0.18900
F2468       F  0.84860877  0.80118080  0.52741096    -0.18900
C2469       C  0.67457562  0.53590797  0.92026909    -0.20300
C2470       C  0.68004073  0.53684365  0.88798780    -0.08300
C2471       C  0.71379866  0.55648923  0.87616585     0.30500
C2472       C  0.74152391  0.57583880  0.89628578    -0.20300
C2473       C  0.73614912  0.57573335  0.92859841    -0.08400
C2474       C  0.70236516  0.55507585  0.94051042     0.30500
F2475       F  0.69590134  0.55458249  0.97146827    -0.18900
H2476       H  0.64864155  0.52068672  0.92970357     0.18900
H2477       H  0.76728115  0.59117090  0.88652420     0.18900
F2478       F  0.71992796  0.55663050  0.84516572    -0.18900
C2479       C  0.73472922  0.67696092  0.08613137    -0.20300
C2480       C  0.73289642  0.64995756  0.06782293    -0.08300
C2481       C  0.70318020  0.61678903  0.06988269     0.30500
C2482       C  0.67631699  0.61074795  0.09015975    -0.20300
C2483       C  0.67838482  0.63739593  0.10898621    -0.08400
C2484       C  0.70792986  0.67069600  0.10689653     0.30500
F2485       F  0.71149851  0.69677349  0.12565764    -0.18900
H2486       H  0.75745764  0.70261182  0.08519313     0.18900
H2487       H  0.65370965  0.58500681  0.09125899     0.18900
F2488       F  0.69988765  0.59007648  0.05217962    -0.18900
C2489       C  0.94149095  0.64758879  0.87727664    -0.20300
C2490       C  0.96431971  0.63824624  0.89054567    -0.08300
C2491       C  0.96707138  0.63797163  0.92316072     0.30500
C2492       C  0.94750931  0.64730672  0.94208430    -0.20300
C2493       C  0.92429632  0.65629556  0.92884251    -0.08400
C2494       C  0.92161793  0.65649746  0.89611305     0.30500
F2495       F  0.89982985  0.66532961  0.88220844    -0.18900
H2496       H  0.93914602  0.64805185  0.85218373     0.18900
H2497       H  0.94966171  0.64634649  0.96714865     0.18900
F2498       F  0.98796006  0.62777622  0.93670065    -0.18900
C2499       C  0.82595574  0.55642794  0.08685016    -0.20300
C2500       C  0.85171208  0.58027029  0.06667162    -0.08300
C2501       C  0.88459260  0.58306930  0.06655368     0.30500
C2502       C  0.89163046  0.56288057  0.08663057    -0.20300
C2503       C  0.86621265  0.53960780  0.10721036    -0.08400
C2504       C  0.83324637  0.53652843  0.10732622     0.30500
F2505       F  0.80800303  0.01538118  0.12805559    -0.18900
H2506       H  0.80063430  0.55415546  0.08759324     0.18900
H2507       H  0.91707883  0.56541009  0.08617274     0.18900
F2508       F  0.91000066  0.60523810  0.04692609    -0.18900
C2509       C  0.91442359  0.79566621  0.07263756    -0.20300
C2510       C  0.91942810  0.76700096  0.07067483    -0.08300
C2511       C  0.94561812  0.76690009  0.08885273     0.30500
C2512       C  0.96591266  0.79478900  0.10875234    -0.20300
C2513       C  0.96097068  0.82351858  0.11040192    -0.08400
C2514       C  0.93497297  0.82363788  0.09207740     0.30500
F2515       F  0.92972514  0.85109602  0.09262719    -0.18900
H2516       H  0.89465569  0.79664825  0.05879911     0.18900
H2517       H  0.98528018  0.79377763  0.12315995     0.18900
F2518       F  0.95095369  0.73951971  0.08815313    -0.18900
C2519       C  0.85705498  0.79690446  0.94284996    -0.20300
C2520       C  0.84766101  0.76459308  0.92945395    -0.08300
C2521       C  0.84739706  0.76171374  0.89674791     0.30500
C2522       C  0.85611012  0.79049298  0.87804789    -0.20300
C2523       C  0.86544790  0.82264933  0.89143962    -0.08400
C2524       C  0.86625457  0.82583424  0.92403207     0.30500
F2525       F  0.87684373  0.85704904  0.93762169    -0.18900
H2526       H  0.85820361  0.80002414  0.96792083     0.18900
H2527       H  0.85551005  0.78769869  0.85294424     0.18900
F2528       F  0.83863238  0.73111692  0.88270533    -0.18900
loop_ 
_geom_bond_atom_site_label_1 
_geom_bond_atom_site_label_2 
_geom_bond_distance 
_geom_bond_site_symmetry_2 
_ccdc_geom_bond_type 
Zn1           O5   1.953   1_554  S
Zn1           O6   1.999       .  S
Zn1          O10   2.030       .  S
Zn1          O17   2.020   1_554  S
Zn2           O5   1.955   1_554  S
Zn2           O7   1.986       .  S
Zn2           O9   2.047       .  S
Zn2          O13   2.038   1_554  S
Zn3           O5   1.954   1_554  S
Zn3           O8   1.998       .  S
Zn3          O11   2.031       .  S
Zn3          O14   2.038   1_554  S
Zn4           O5   1.933       .  S
Zn4          O12   2.002       .  S
Zn4          O15   1.996       .  S
Zn4          O16   1.988       .  S
O6           C18   1.272       .  A
O7           C19   1.272       .  A
O8           C20   1.273       .  A
O9           C18   1.277       .  A
O10          C20   1.276       .  A
O11          C19   1.276       .  A
O12          C21   1.272       .  A
O13          C22   1.276       .  A
O14          C21   1.275       .  A
O15          C22   1.271       .  A
O16          C23   1.271       .  A
O17          C23   1.275       .  A
C18         C614   1.484       .  S
C19         C604   1.475       .  S
C20         C584   1.480       .  S
C21         C577   1.482       .  S
C22         C597   1.483       .  S
C23         C624   1.477       .  S
Zn24         O28   1.948       .  S
Zn24         O29   2.009       .  S
Zn24         O33   1.999       .  S
Zn24         O40   2.004       .  S
Zn25         O28   1.954       .  S
Zn25         O30   2.009       .  S
Zn25         O32   2.034       .  S
Zn25         O36   2.033       .  S
Zn26         O28   1.960       .  S
Zn26         O31   2.034       .  S
Zn26         O34   2.050       .  S
Zn26         O37   2.015       .  S
Zn27         O28   1.955       .  S
Zn27         O35   2.030       .  S
Zn27         O38   1.981       .  S
Zn27         O39   2.011       .  S
O29          C41   1.272       .  A
O30          C42   1.274       .  A
O31          C43   1.277       .  A
O32          C41   1.275       .  A
O33          C43   1.273       .  A
O34          C42   1.278       .  A
O35          C44   1.274       .  A
O36          C45   1.276       .  A
O37          C44   1.273       .  A
O38          C45   1.271       .  A
O39          C46   1.271       .  A
O40          C46   1.271       .  A
C41         C527   1.475       .  S
C42         C514   1.487       .  S
C43         C544   1.480       .  S
C44         C564   1.468       .  S
C45         C534   1.470       .  S
C46         C554   1.469       .  S
N47          C52   1.351       .  A
N47          C51   1.352       .  A
N47          H79   1.042       .  S
N48          C56   1.348   1_565  A
N48         C687   1.349       .  A
N49          C54   1.352       .  A
N49          C53   1.351       .  A
N49          H80   1.042       .  S
N50          C58   1.350   1_565  A
N50         C689   1.349       .  A
C51          C59   1.386       .  A
C51          C67   1.412       .  A
C52          C68   1.411       .  A
C52          C60   1.386       .  A
C53          C61   1.386       .  A
C53          C70   1.410       .  A
C54          C69   1.411       .  A
C54          C62   1.386       .  A
C55         N680   1.348       .  A
C55          C67   1.409       .  A
C55          C63   1.386       .  A
C56          C70   1.409       .  A
C56          C64   1.386       .  A
C57         N682   1.350       .  A
C57          C65   1.386       .  A
C57          C68   1.411       .  A
C58          C66   1.385       .  A
C58          C69   1.411       .  A
C59          C60   1.379       .  A
C59          H71   1.082       .  S
C60          H72   1.082       .  S
C61          C62   1.377       .  A
C61          H73   1.082       .  S
C62          H74   1.082       .  S
C63         C696   1.378       .  A
C63          H75   1.082       .  S
C64         C695   1.378   1_545  A
C64          H76   1.082       .  S
C65         C698   1.378       .  A
C65          H77   1.082       .  S
C66         C697   1.378   1_545  A
C66          H78   1.082       .  S
C67         C168   1.487       .  S
C68         C177   1.489       .  S
C69         C153   1.490       .  S
C70         C192   1.484       .  S
N81          C86   1.352       .  A
N81          C85   1.351       .  A
N81         H113   1.042       .  S
N82          C89   1.349       .  A
N82          C90   1.349       .  A
N83          C88   1.351       .  A
N83          C87   1.352       .  A
N83         H114   1.041       .  S
N84          C91   1.350       .  A
N84          C92   1.350       .  A
C85          C93   1.386       .  A
C85         C101   1.411       .  A
C86         C102   1.410       .  A
C86          C94   1.386       .  A
C87          C95   1.386       .  A
C87         C104   1.412       .  A
C88         C103   1.412       .  A
C88          C96   1.386       .  A
C89         C101   1.409       .  A
C89          C97   1.385       .  A
C90         C104   1.411       .  A
C90          C98   1.386       .  A
C91          C99   1.386       .  A
C91         C102   1.412       .  A
C92         C100   1.386       .  A
C92         C103   1.412       .  A
C93          C94   1.378       .  A
C93         H105   1.082       .  S
C94         H106   1.082       .  S
C95          C96   1.379       .  A
C95         H107   1.082       .  S
C96         H108   1.082       .  S
C97          C98   1.377       .  A
C97         H109   1.082       .  S
C98         H110   1.082       .  S
C99         C100   1.380       .  A
C99         H111   1.082       .  S
C100        H112   1.082       .  S
C101        C160   1.487       .  S
C102        C184   1.489       .  S
C103        C193   1.489       .  S
C104        C152   1.489       .  S
N115        C120   1.351       .  A
N115        C119   1.350       .  A
N115        H147   1.041       .  S
N116        C124   1.349       .  A
N116       C1387   1.348   1_455  A
N117        C122   1.350       .  A
N117        C121   1.351       .  A
N117        H148   1.041       .  S
N118        C126   1.347   1_655  A
N118       C1389   1.348       .  A
C119        C127   1.386       .  A
C119        C135   1.410       .  A
C120        C136   1.409       .  A
C120        C128   1.385       .  A
C121        C129   1.386       .  A
C121        C138   1.410       .  A
C122        C137   1.409       .  A
C122        C130   1.386       .  A
C123       N1380   1.348       .  A
C123        C135   1.409       .  A
C123        C131   1.386       .  A
C124        C138   1.409       .  A
C124        C132   1.385       .  A
C125       N1382   1.348       .  A
C125        C133   1.385       .  A
C125        C136   1.408       .  A
C126        C134   1.386       .  A
C126        C137   1.408       .  A
C127        C128   1.379       .  A
C127        H139   1.082       .  S
C128        H140   1.082       .  S
C129        C130   1.379       .  A
C129        H141   1.082       .  S
C130        H142   1.082       .  S
C131       C1396   1.377       .  A
C131        H143   1.082       .  S
C132       C1395   1.378   1_455  A
C132        H144   1.082       .  S
C133       C1398   1.377       .  A
C133        H145   1.082       .  S
C134       C1397   1.377   1_455  A
C134        H146   1.082       .  S
C135        C169   1.485       .  S
C136        C176   1.485       .  S
C137        C161   1.481       .  S
C138        C185   1.486       .  S
C149        C517   1.491       .  S
C149        C154   1.408       .  A
C149       C1414   1.417       .  A
C150        C504   1.478       .  S
C150        C151   1.405       .  A
C150       C1413   1.416   1_455  A
C151        C152   1.402       .  A
C151        H156   1.084       .  S
C152       C1417   1.415   1_455  A
C153        C154   1.402       .  A
C153       C1416   1.414       .  A
C154        H155   1.084       .  S
C157        C497   1.480       .  S
C157        C162   1.402       .  A
C157        C790   1.412       .  A
C158        C537   1.473       .  S
C158        C159   1.403       .  A
C158        C789   1.412   1_545  A
C159        C160   1.399       .  A
C159        H164   1.084       .  S
C160        C793   1.414   1_545  A
C161        C162   1.399       .  A
C161        C792   1.414       .  A
C162        H163   1.084       .  S
C165        C627   1.477       .  S
C165        C166   1.415       .  A
C165        C170   1.404       .  A
C166        C484   1.486       .  S
C166        C167   1.406       .  A
C167        C168   1.401       .  A
C167        H172   1.084       .  S
C168        C169   1.413       .  A
C169        C170   1.398       .  A
C170        H171   1.084       .  S
C173        C474   1.484       .  S
C173        C174   1.419       .  A
C173        C178   1.407       .  A
C174        C567   1.489       .  S
C174        C175   1.406       .  A
C175        C176   1.399       .  A
C175        H180   1.084       .  S
C176        C177   1.413       .  A
C177        C178   1.400       .  A
C178        H179   1.084       .  S
C181        C464   1.483       .  S
C181        C186   1.404       .  A
C181        C814   1.414       .  A
C182        C574   1.480       .  S
C182        C183   1.405       .  A
C182        C813   1.413   1_545  A
C183        C184   1.403       .  A
C183        H188   1.084       .  S
C184        C817   1.415   1_545  A
C185        C186   1.399       .  A
C185        C816   1.415       .  A
C186        H187   1.084       .  S
C189        C457   1.481       .  S
C189        C194   1.406       .  A
C189       C1454   1.416   1_455  A
C190        C594   1.485       .  S
C190        C191   1.404       .  A
C190       C1453   1.416       .  A
C191        C192   1.401       .  A
C191        H196   1.084       .  S
C192       C1457   1.413       .  A
C193        C194   1.398       .  A
C193       C1456   1.413   1_455  A
C194        H195   1.084       .  S
Zn197       O201   1.956       .  S
Zn197       O202   2.037       .  S
Zn197       O206   2.023       .  S
Zn197       O213   2.001       .  S
Zn198       O201   1.962       .  S
Zn198       O203   2.026       .  S
Zn198       O205   2.007       .  S
Zn198       O209   2.042       .  S
Zn199       O201   1.952       .  S
Zn199       O204   2.012       .  S
Zn199       O207   1.996       .  S
Zn199       O210   2.004       .  S
Zn200       O201   1.956       .  S
Zn200       O208   2.024       .  S
Zn200       O211   2.000       .  S
Zn200       O212   2.032       .  S
O202        C214   1.276       .  A
O203        C215   1.275       .  A
O204        C216   1.272       .  A
O205        C214   1.272       .  A
O206        C216   1.275       .  A
O207        C215   1.272       .  A
O208        C217   1.275       .  A
O209        C218   1.277       .  A
O210        C217   1.272       .  A
O211        C218   1.273       .  A
O212        C219   1.275       .  A
O213        C219   1.271       .  A
C214        C507   1.470       .  S
C215        C424   1.476       .  S
C216        C437   1.473       .  S
C217        C447   1.478       .  S
C218        C477   1.483       .  S
C219        C494   1.465       .  S
Zn220       O224   1.932       .  S
Zn220       O225   2.002       .  S
Zn220       O229   2.004       .  S
Zn220       O236   1.997       .  S
Zn221       O224   1.958   1_556  S
Zn221       O226   1.989       .  S
Zn221       O228   2.033   1_556  S
Zn221       O232   2.046       .  S
Zn222       O224   1.960   1_556  S
Zn222       O227   2.035   1_556  S
Zn222       O230   2.032       .  S
Zn222       O233   1.993       .  S
Zn223       O224   1.956   1_556  S
Zn223       O231   2.036       .  S
Zn223       O234   2.003       .  S
Zn223       O235   2.031   1_556  S
O225        C237   1.272       .  A
O226        C238   1.273       .  A
O227        C239   1.275       .  A
O228        C237   1.276       .  A
O229        C239   1.272       .  A
O230        C238   1.276       .  A
O231        C240   1.276       .  A
O232        C241   1.277       .  A
O233        C240   1.272       .  A
O234        C241   1.273       .  A
O235        C242   1.275       .  A
O236        C242   1.272       .  A
C237        C397   1.485       .  S
C238        C454   1.477       .  S
C239        C407   1.483       .  S
C240        C467   1.479       .  S
C241        C487   1.483       .  S
C242        C414   1.482       .  S
N243        C248   1.351       .  A
N243        C247   1.351       .  A
N243        H275   1.041       .  S
N244        C252   1.348       .  A
N244       C1515   1.349       .  A
N245        C250   1.352       .  A
N245        C249   1.351       .  A
N245        H276   1.041       .  S
N246        C254   1.349       .  A
N246       C1517   1.349       .  A
C247        C255   1.386       .  A
C247        C263   1.410       .  A
C248        C264   1.409       .  A
C248        C256   1.385       .  A
C249        C257   1.386       .  A
C249        C266   1.412       .  A
C250        C265   1.412       .  A
C250        C258   1.385       .  A
C251       N1508   1.349       .  A
C251        C263   1.410       .  A
C251        C259   1.386       .  A
C252        C266   1.410       .  A
C252        C260   1.386       .  A
C253       N1510   1.349       .  A
C253        C261   1.386       .  A
C253        C264   1.409       .  A
C254        C262   1.386       .  A
C254        C265   1.409       .  A
C255        C256   1.379       .  A
C255        H267   1.082       .  S
C256        H268   1.082       .  S
C257        C258   1.380       .  A
C257        H269   1.082       .  S
C258        H270   1.082       .  S
C259       C1524   1.378   1_455  A
C259        H271   1.082       .  S
C260       C1523   1.378       .  A
C260        H272   1.082       .  S
C261       C1526   1.377   1_455  A
C261        H273   1.082       .  S
C262       C1525   1.377       .  A
C262        H274   1.082       .  S
C263        C372   1.486       .  S
C264        C364   1.485       .  S
C265        C315   1.488       .  S
C266        C356   1.486       .  S
N277        C282   1.352       .  A
N277        C281   1.352       .  A
N277        H309   1.042       .  S
N278        C285   1.348       .  A
N278        C286   1.348       .  A
N279        C284   1.350       .  A
N279        C283   1.351       .  A
N279        H310   1.041       .  S
N280        C287   1.350       .  A
N280        C288   1.349       .  A
C281        C289   1.385       .  A
C281        C297   1.412       .  A
C282        C298   1.412       .  A
C282        C290   1.386       .  A
C283        C291   1.386       .  A
C283        C300   1.409       .  A
C284        C299   1.409       .  A
C284        C292   1.386       .  A
C285        C297   1.409       .  A
C285        C293   1.386       .  A
C286        C300   1.409       .  A
C286        C294   1.385       .  A
C287        C295   1.385       .  A
C287        C298   1.411       .  A
C288        C296   1.386       .  A
C288        C299   1.412       .  A
C289        C290   1.379       .  A
C289        H301   1.082       .  S
C290        H302   1.082       .  S
C291        C292   1.377       .  A
C291        H303   1.082       .  S
C292        H304   1.082       .  S
C293        C294   1.378       .  A
C293        H305   1.082       .  S
C294        H306   1.082       .  S
C295        C296   1.379       .  A
C295        H307   1.082       .  S
C296        H308   1.082       .  S
C297        C388   1.488       .  S
C298        C381   1.491       .  S
C299        C314   1.486       .  S
C300        C357   1.484       .  S
C311        C524   1.478       .  S
C311        C316   1.404       .  A
C311        C944   1.411   1_545  A
C312        C444   1.476       .  S
C312        C313   1.401       .  A
C312        C943   1.412       .  A
C313        C314   1.400       .  A
C313        H318   1.084       .  S
C314        C947   1.416       .  A
C315        C316   1.403       .  A
C315        C946   1.416   1_545  A
C316        H317   1.084       .  S
N319        C324   1.351       .  A
N319        C323   1.350       .  A
N319        H351   1.043       .  S
N320        C328   1.347       .  A
N320        C959   1.347       .  A
N321        C326   1.350       .  A
N321        C325   1.352       .  A
N321        H352   1.042       .  S
N322        C330   1.350       .  A
N322        C961   1.350       .  A
C323        C331   1.386       .  A
C323        C339   1.410       .  A
C324        C340   1.409       .  A
C324        C332   1.386       .  A
C325        C333   1.386       .  A
C325        C342   1.412       .  A
C326        C341   1.411       .  A
C326        C334   1.386       .  A
C327        N952   1.347   1_545  A
C327        C339   1.407       .  A
C327        C335   1.386       .  A
C328        C342   1.407       .  A
C328        C336   1.386       .  A
C329        N954   1.350   1_545  A
C329        C337   1.385       .  A
C329        C340   1.411       .  A
C330        C338   1.386       .  A
C330        C341   1.412       .  A
C331        C332   1.379       .  A
C331        H343   1.082       .  S
C332        H344   1.082       .  S
C333        C334   1.379       .  A
C333        H345   1.082       .  S
C334        H346   1.082       .  S
C335        C968   1.376   1_545  A
C335        H347   1.082       .  S
C336        C967   1.375       .  A
C336        H348   1.082       .  S
C337        C970   1.378   1_545  A
C337        H349   1.082       .  S
C338        C969   1.378       .  A
C338        H350   1.082       .  S
C339        C365   1.482       .  S
C340        C373   1.488       .  S
C341        C389   1.487       .  S
C342        C380   1.484       .  S
C353        C417   1.482       .  S
C353        C358   1.404       .  A
C353        C986   1.415       .  A
C354        C607   1.480       .  S
C354        C355   1.404       .  A
C354        C985   1.415   1_545  A
C355        C356   1.398       .  A
C355        H360   1.084       .  S
C356        C989   1.413   1_545  A
C357        C358   1.401       .  A
C357        C988   1.413       .  A
C358        H359   1.084       .  S
C361        C557   1.472       .  S
C361        C362   1.411       .  A
C361        C366   1.399       .  A
C362        C427   1.477       .  S
C362        C363   1.403       .  A
C363        C364   1.400       .  A
C363        H368   1.084       .  S
C364        C365   1.415       .  A
C365        C366   1.398       .  A
C366        H367   1.084       .  S
C369        C587   1.484       .  S
C369        C370   1.419       .  A
C369        C374   1.407       .  A
C370        C394   1.486       .  S
C370        C371   1.406       .  A
C371        C372   1.400       .  A
C371        H376   1.084       .  S
C372        C373   1.413       .  A
C373        C374   1.399       .  A
C374        H375   1.084       .  S
C377        C547   1.478       .  S
C377        C382   1.406       .  A
C377       C1642   1.412       .  A
C378        C434   1.478       .  S
C378        C379   1.401       .  A
C378       C1641   1.412   1_455  A
C379        C380   1.401       .  A
C379        H384   1.084       .  S
C380       C1645   1.415   1_455  A
C381        C382   1.402       .  A
C381       C1644   1.415       .  A
C382        H383   1.084       .  S
C385        C404   1.481       .  S
C385        C390   1.406       .  A
C385       C1650   1.418   1_455  A
C386        C617   1.489       .  S
C386        C387   1.407       .  A
C386       C1649   1.418       .  A
C387        C388   1.401       .  A
C387        H392   1.084       .  S
C388       C1653   1.413       .  A
C389        C390   1.399       .  A
C389       C1652   1.413   1_455  A
C390        H391   1.084       .  S
C393        C394   1.402       .  A
C393        C398   1.396       .  A
C393        H400   1.084       .  S
C394        C395   1.407       .  A
C395        C396   1.401       .  A
C395        F402   1.357       .  S
C396        C397   1.407       .  A
C396        H401   1.083       .  S
C397        C398   1.410       .  A
C398        F399   1.358       .  S
C403        C404   1.401       .  A
C403        C408   1.395       .  A
C403        H410   1.084       .  S
C404        C405   1.406       .  A
C405        C406   1.402       .  A
C405       F1676   1.357       .  S
C406        C407   1.408       .  A
C406        H411   1.083       .  S
C407        C408   1.409       .  A
C408        F409   1.357       .  S
F412       C1669   1.357       .  S
C413        C414   1.407       .  A
C413        C418   1.400       .  A
C413        H420   1.083       .  S
C414        C415   1.409       .  A
C415        C416   1.395       .  A
C415        F422   1.357       .  S
C416        C417   1.401       .  A
C416        H421   1.084       .  S
C417        C418   1.406       .  A
C418       F1051   1.357       .  S
F419       C1050   1.357       .  S
C423        C424   1.404       .  A
C423        C428   1.397       .  A
C423        H430   1.083       .  S
C424        C425   1.408       .  A
C425        C426   1.397       .  A
C425        F432   1.358       .  S
C426        C427   1.401       .  A
C426        H431   1.084       .  S
C427        C428   1.404       .  A
C428        F429   1.356       .  S
C433        C434   1.400       .  A
C433        C438   1.397       .  A
C433        H440   1.083       .  S
C434        C435   1.405       .  A
C435        C436   1.401       .  A
C435        F442   1.357       .  S
C436        C437   1.405       .  A
C436        H441   1.083       .  S
C437        C438   1.406       .  A
C438        F439   1.358       .  S
C443        C444   1.401       .  A
C443        C448   1.398       .  A
C443        H450   1.083       .  S
C444        C445   1.403       .  A
C445        C446   1.397       .  A
C445        F452   1.356       .  S
C446        C447   1.405       .  A
C446        H451   1.083       .  S
C447        C448   1.409       .  A
C448        F449   1.358       .  S
C453        C454   1.405       .  A
C453        C458   1.391       .  A
C453        H460   1.083       .  S
C454        C455   1.408       .  A
C455        C456   1.401       .  A
C455        F462   1.357       .  S
C456        C457   1.406       .  A
C456        H461   1.083       .  S
C457        C458   1.402       .  A
C458        F459   1.358       .  S
C463        C464   1.406       .  A
C463        C468   1.400       .  A
C463        H470   1.083       .  S
C464        C465   1.403       .  A
C465        C466   1.394       .  A
C465        F472   1.358       .  S
C466        C467   1.406       .  A
C466        H471   1.083       .  S
C467        C468   1.407       .  A
C468        F469   1.357       .  S
C473        C474   1.406       .  A
C473        C478   1.402       .  A
C473        H480   1.083       .  S
C474        C475   1.404       .  A
C475        C476   1.395       .  A
C475        F482   1.358       .  S
C476        C477   1.406       .  A
C476        H481   1.083       .  S
C477        C478   1.409       .  A
C478        F479   1.357       .  S
C483        C484   1.407       .  A
C483        C488   1.404       .  A
C483        H490   1.083       .  S
C484        C485   1.402       .  A
C485        C486   1.395       .  A
C485        F492   1.358       .  S
C486        C487   1.406       .  A
C486        H491   1.083       .  S
C487        C488   1.409       .  A
C488        F489   1.357       .  S
C493        C494   1.401       .  A
C493        C498   1.398       .  A
C493        H500   1.083       .  S
C494        C495   1.404       .  A
C495        C496   1.399       .  A
C495        F502   1.358       .  S
C496        C497   1.404       .  A
C496        H501   1.083       .  S
C497        C498   1.405       .  A
C498        F499   1.357       .  S
C503        C504   1.402       .  A
C503        C508   1.399       .  A
C503        H510   1.083       .  S
C504        C505   1.405       .  A
C505        C506   1.400       .  A
C505       F1776   1.357       .  S
C506        C507   1.403       .  A
C506        H511   1.083       .  S
C507        C508   1.405       .  A
C508        F509   1.358       .  S
F512       C1769   1.357       .  S
C513        C514   1.407       .  A
C513        C518   1.397       .  A
C513        H520   1.083       .  S
C514        C515   1.409       .  A
C515        C516   1.403       .  A
C515        F522   1.357       .  S
C516        C517   1.407       .  A
C516        H521   1.083       .  S
C517        C518   1.405       .  A
C518        F519   1.358       .  S
C523        C524   1.403       .  A
C523        C528   1.401       .  A
C523        H530   1.083       .  S
C524        C525   1.403       .  A
C525        C526   1.398       .  A
C525       F1164   1.357       .  S
C526        C527   1.403       .  A
C526        H531   1.083       .  S
C527        C528   1.407       .  A
C528        F529   1.358       .  S
F532       C1157   1.357       .  S
C533        C534   1.406       .  A
C533        C538   1.394       .  A
C533        H540   1.084       .  S
C534        C535   1.404       .  A
C535        C536   1.397       .  A
C535        F542   1.357       .  S
C536        C537   1.403       .  A
C536        H541   1.083       .  S
C537        C538   1.401       .  A
C538        F539   1.358       .  S
C543        C544   1.406       .  A
C543        C548   1.399       .  A
C543        H550   1.083       .  S
C544        C545   1.410       .  A
C545        C546   1.397       .  A
C545        F552   1.357       .  S
C546        C547   1.400       .  A
C546        H551   1.084       .  S
C547        C548   1.404       .  A
C548        F549   1.357       .  S
C553        C554   1.404       .  A
C553        C558   1.397       .  A
C553        H560   1.084       .  S
C554        C555   1.404       .  A
C555        C556   1.396       .  A
C555        F562   1.357       .  S
C556        C557   1.401       .  A
C556        H561   1.083       .  S
C557        C558   1.403       .  A
C558        F559   1.357       .  S
C563        C564   1.400       .  A
C563        C568   1.398       .  A
C563        H570   1.083       .  S
C564        C565   1.403       .  A
C565        C566   1.400       .  A
C565        F572   1.357       .  S
C566        C567   1.407       .  A
C566        H571   1.083       .  S
C567        C568   1.408       .  A
C568        F569   1.358       .  S
C573        C574   1.403       .  A
C573        C578   1.400       .  A
C573        H580   1.083       .  S
C574        C575   1.402       .  A
C575        C576   1.397       .  A
C575        F582   1.358       .  S
C576        C577   1.407       .  A
C576        H581   1.083       .  S
C577        C578   1.409       .  A
C578        F579   1.357       .  S
C583        C584   1.406       .  A
C583        C588   1.401       .  A
C583        H590   1.083       .  S
C584        C585   1.408       .  A
C585        C586   1.393       .  A
C585        F592   1.358       .  S
C586        C587   1.402       .  A
C586        H591   1.084       .  S
C587        C588   1.408       .  A
C588        F589   1.357       .  S
C593        C594   1.402       .  A
C593        C598   1.398       .  A
C593        H600   1.084       .  S
C594        C595   1.406       .  A
C595        C596   1.400       .  A
C595        F602   1.357       .  S
C596        C597   1.406       .  A
C596        H601   1.083       .  S
C597        C598   1.411       .  A
C598        F599   1.358       .  S
C603        C604   1.404       .  A
C603        C608   1.399       .  A
C603        H610   1.083       .  S
C604        C605   1.409       .  A
C605        C606   1.392       .  A
C605        F612   1.358       .  S
C606        C607   1.400       .  A
C606        H611   1.084       .  S
C607        C608   1.408       .  A
C608       F1241   1.357       .  S
F609       C1240   1.357       .  S
C613        C614   1.407       .  A
C613        C618   1.395       .  A
C613        H620   1.083       .  S
C614        C615   1.408       .  A
C615        C616   1.403       .  A
C615        F622   1.357       .  S
C616        C617   1.407       .  A
C616        H621   1.083       .  S
C617        C618   1.405       .  A
C618        F619   1.358       .  S
C623        C624   1.406       .  A
C623        C628   1.398       .  A
C623        H630   1.083       .  S
C624        C625   1.409       .  A
C625        C626   1.393       .  A
C625        F632   1.358       .  S
C626        C627   1.400       .  A
C626        H631   1.084       .  S
C627        C628   1.405       .  A
C628        F629   1.357       .  S
Zn633       O637   1.952   1_554  S
Zn633       O638   1.998       .  S
Zn633       O642   2.031       .  S
Zn633       O649   2.020   1_554  S
Zn634       O637   1.955   1_554  S
Zn634       O639   1.985       .  S
Zn634       O641   2.047       .  S
Zn634       O645   2.038   1_554  S
Zn635       O637   1.953   1_554  S
Zn635       O640   1.998       .  S
Zn635       O643   2.030       .  S
Zn635       O646   2.037   1_554  S
Zn636       O637   1.931       .  S
Zn636       O644   2.001       .  S
Zn636       O647   1.991       .  S
Zn636       O648   1.987       .  S
O638        C650   1.272       .  A
O639        C651   1.272       .  A
O640        C652   1.273       .  A
O641        C650   1.277       .  A
O642        C652   1.276       .  A
O643        C651   1.276       .  A
O644        C653   1.272       .  A
O645        C654   1.276       .  A
O646        C653   1.275       .  A
O647        C654   1.271       .  A
O648        C655   1.271       .  A
O649        C655   1.275       .  A
C650       C1246   1.485       .  S
C651       C1236   1.474       .  S
C652       C1216   1.480       .  S
C653       C1209   1.482       .  S
C654       C1229   1.482       .  S
C655       C1256   1.477       .  S
Zn656       O660   1.946       .  S
Zn656       O661   2.006       .  S
Zn656       O665   2.001       .  S
Zn656       O672   2.008       .  S
Zn657       O660   1.953       .  S
Zn657       O662   2.003       .  S
Zn657       O664   2.035       .  S
Zn657       O668   2.031       .  S
Zn658       O660   1.958       .  S
Zn658       O663   2.030       .  S
Zn658       O666   2.042       .  S
Zn658       O669   2.009       .  S
Zn659       O660   1.954       .  S
Zn659       O667   2.033       .  S
Zn659       O670   1.986       .  S
Zn659       O671   2.010       .  S
O661        C673   1.272       .  A
O662        C674   1.273       .  A
O663        C675   1.276       .  A
O664        C673   1.275       .  A
O665        C675   1.273       .  A
O666        C674   1.277       .  A
O667        C676   1.275       .  A
O668        C677   1.276       .  A
O669        C676   1.272       .  A
O670        C677   1.271       .  A
O671        C678   1.272       .  A
O672        C678   1.272       .  A
C673       C1159   1.472       .  S
C674       C1146   1.482       .  S
C675       C1176   1.476       .  S
C676       C1196   1.468       .  S
C677       C1166   1.473       .  S
C678       C1186   1.473       .  S
N679        C684   1.351       .  A
N679        C683   1.352       .  A
N679        H711   1.042       .  S
N680        C688   1.348       .  A
N681        C686   1.351       .  A
N681        C685   1.351       .  A
N681        H712   1.042       .  S
N682        C690   1.350       .  A
C683        C691   1.386       .  A
C683        C699   1.411       .  A
C684        C700   1.411       .  A
C684        C692   1.386       .  A
C685        C693   1.386       .  A
C685        C702   1.410       .  A
C686        C701   1.410       .  A
C686        C694   1.386       .  A
C687        C699   1.409       .  A
C687        C695   1.386       .  A
C688        C702   1.409       .  A
C688        C696   1.386       .  A
C689        C697   1.386       .  A
C689        C700   1.411       .  A
C690        C698   1.385       .  A
C690        C701   1.411       .  A
C691        C692   1.379       .  A
C691        H703   1.082       .  S
C692        H704   1.082       .  S
C693        C694   1.377       .  A
C693        H705   1.082       .  S
C694        H706   1.082       .  S
C695        H707   1.082       .  S
C696        H708   1.082       .  S
C697        H709   1.082       .  S
C698        H710   1.082       .  S
C699        C800   1.487       .  S
C700        C809   1.489       .  S
C701        C785   1.488       .  S
C702        C824   1.483       .  S
N713        C718   1.352       .  A
N713        C717   1.352       .  A
N713        H745   1.041       .  S
N714        C721   1.349       .  A
N714        C722   1.349       .  A
N715        C720   1.351       .  A
N715        C719   1.352       .  A
N715        H746   1.041       .  S
N716        C723   1.350       .  A
N716        C724   1.350       .  A
C717        C725   1.386       .  A
C717        C733   1.412       .  A
C718        C734   1.411       .  A
C718        C726   1.385       .  A
C719        C727   1.386       .  A
C719        C736   1.412       .  A
C720        C735   1.411       .  A
C720        C728   1.386       .  A
C721        C733   1.409       .  A
C721        C729   1.385       .  A
C722        C736   1.411       .  A
C722        C730   1.386       .  A
C723        C731   1.386       .  A
C723        C734   1.412       .  A
C724        C732   1.386       .  A
C724        C735   1.412       .  A
C725        C726   1.379       .  A
C725        H737   1.082       .  S
C726        H738   1.082       .  S
C727        C728   1.379       .  A
C727        H739   1.082       .  S
C728        H740   1.082       .  S
C729        C730   1.378       .  A
C729        H741   1.082       .  S
C730        H742   1.081       .  S
C731        C732   1.379       .  A
C731        H743   1.082       .  S
C732        H744   1.082       .  S
C733        C792   1.488       .  S
C734        C816   1.490       .  S
C735        C825   1.489       .  S
C736        C784   1.489       .  S
N747        C752   1.351       .  A
N747        C751   1.350       .  A
N747        H779   1.041       .  S
N748       C2019   1.348   1_455  A
N748        C756   1.348       .  A
N749        C754   1.350       .  A
N749        C753   1.350       .  A
N749        H780   1.041       .  S
N750       C2021   1.348       .  A
N750        C758   1.348   1_655  A
C751        C759   1.386       .  A
C751        C767   1.409       .  A
C752        C768   1.409       .  A
C752        C760   1.385       .  A
C753        C761   1.386       .  A
C753        C770   1.410       .  A
C754        C769   1.409       .  A
C754        C762   1.386       .  A
C755       N2012   1.348       .  A
C755        C767   1.409       .  A
C755        C763   1.386       .  A
C756        C770   1.409       .  A
C756        C764   1.385       .  A
C757       N2014   1.348       .  A
C757        C765   1.385       .  A
C757        C768   1.408       .  A
C758        C766   1.386       .  A
C758        C769   1.408       .  A
C759        C760   1.378       .  A
C759        H771   1.082       .  S
C760        H772   1.082       .  S
C761        C762   1.379       .  A
C761        H773   1.082       .  S
C762        H774   1.082       .  S
C763       C2028   1.377       .  A
C763        H775   1.082       .  S
C764       C2027   1.377   1_455  A
C764        H776   1.082       .  S
C765       C2030   1.377       .  A
C765        H777   1.082       .  S
C766       C2029   1.377   1_455  A
C766        H778   1.082       .  S
C767        C801   1.484       .  S
C768        C808   1.485       .  S
C769        C793   1.481       .  S
C770        C817   1.485       .  S
C781       C1149   1.486       .  S
C781       C2046   1.414       .  A
C781        C786   1.406       .  A
C782       C1136   1.477       .  S
C782       C2045   1.414   1_455  A
C782        C783   1.404       .  A
C783        C784   1.402       .  A
C783        H788   1.084       .  S
C784       C2049   1.415   1_455  A
C785       C2048   1.415       .  A
C785        C786   1.401       .  A
C786        H787   1.084       .  S
C789       C1129   1.480       .  S
C789        C794   1.402       .  A
C790       C1169   1.475       .  S
C790        C791   1.403       .  A
C791        C792   1.399       .  A
C791        H796   1.084       .  S
C793        C794   1.399       .  A
C794        H795   1.084       .  S
C797       C1259   1.478       .  S
C797        C798   1.415       .  A
C797        C802   1.404       .  A
C798       C1116   1.485       .  S
C798        C799   1.407       .  A
C799        C800   1.401       .  A
C799        H804   1.084       .  S
C800        C801   1.413       .  A
C801        C802   1.397       .  A
C802        H803   1.085       .  S
C805       C1106   1.484       .  S
C805        C806   1.418       .  A
C805        C810   1.407       .  A
C806       C1199   1.488       .  S
C806        C807   1.406       .  A
C807        C808   1.399       .  A
C807        H812   1.084       .  S
C808        C809   1.413       .  A
C809        C810   1.400       .  A
C810        H811   1.084       .  S
C813       C1096   1.480       .  S
C813        C818   1.403       .  A
C814       C1206   1.481       .  S
C814        C815   1.406       .  A
C815        C816   1.403       .  A
C815        H820   1.084       .  S
C817        C818   1.399       .  A
C818        H819   1.084       .  S
C821       C1089   1.482       .  S
C821       C2086   1.416   1_455  A
C821        C826   1.407       .  A
C822       C1226   1.484       .  S
C822       C2085   1.416       .  A
C822        C823   1.404       .  A
C823        C824   1.401       .  A
C823        H828   1.084       .  S
C824       C2089   1.413       .  A
C825       C2088   1.413   1_455  A
C825        C826   1.398       .  A
C826        H827   1.084       .  S
Zn829       O833   1.958       .  S
Zn829       O834   2.037       .  S
Zn829       O838   2.026       .  S
Zn829       O845   2.000       .  S
Zn830       O833   1.962       .  S
Zn830       O835   2.026       .  S
Zn830       O837   2.007       .  S
Zn830       O841   2.047       .  S
Zn831       O833   1.953       .  S
Zn831       O836   2.011       .  S
Zn831       O839   2.003       .  S
Zn831       O842   2.009       .  S
Zn832       O833   1.955       .  S
Zn832       O840   2.024       .  S
Zn832       O843   1.997       .  S
Zn832       O844   2.032       .  S
O834        C846   1.275       .  A
O835        C847   1.276       .  A
O836        C848   1.273       .  A
O837        C846   1.272       .  A
O838        C848   1.275       .  A
O839        C847   1.272       .  A
O840        C849   1.274       .  A
O841        C850   1.277       .  A
O842        C849   1.272       .  A
O843        C850   1.272       .  A
O844        C851   1.274       .  A
O845        C851   1.271       .  A
C846       C1139   1.471       .  S
C847       C1056   1.475       .  S
C848       C1069   1.478       .  S
C849       C1079   1.478       .  S
C850       C1109   1.482       .  S
C851       C1126   1.465       .  S
Zn852       O856   1.930       .  S
Zn852       O857   2.001       .  S
Zn852       O861   2.002       .  S
Zn852       O868   1.996       .  S
Zn853       O856   1.956   1_556  S
Zn853       O858   1.989       .  S
Zn853       O860   2.031   1_556  S
Zn853       O864   2.044       .  S
Zn854       O856   1.959   1_556  S
Zn854       O859   2.035   1_556  S
Zn854       O862   2.034       .  S
Zn854       O865   1.991       .  S
Zn855       O856   1.956   1_556  S
Zn855       O863   2.035       .  S
Zn855       O866   2.004       .  S
Zn855       O867   2.031   1_556  S
O857        C869   1.272       .  A
O858        C870   1.273       .  A
O859        C871   1.275       .  A
O860        C869   1.275       .  A
O861        C871   1.272       .  A
O862        C870   1.276       .  A
O863        C872   1.276       .  A
O864        C873   1.276       .  A
O865        C872   1.272       .  A
O866        C873   1.273       .  A
O867        C874   1.275       .  A
O868        C874   1.272       .  A
C869       C1029   1.484       .  S
C870       C1086   1.478       .  S
C871       C1039   1.484       .  S
C872       C1099   1.478       .  S
C873       C1119   1.483       .  S
C874       C1046   1.481       .  S
N875        C880   1.350       .  A
N875        C879   1.351       .  A
N875        H907   1.041       .  S
N876       C2147   1.349       .  A
N876        C884   1.348       .  A
N877        C882   1.352       .  A
N877        C881   1.351       .  A
N877        H908   1.040       .  S
N878       C2149   1.349       .  A
N878        C886   1.349       .  A
C879        C887   1.386       .  A
C879        C895   1.410       .  A
C880        C896   1.409       .  A
C880        C888   1.385       .  A
C881        C889   1.386       .  A
C881        C898   1.413       .  A
C882        C897   1.412       .  A
C882        C890   1.386       .  A
C883       N2140   1.349       .  A
C883        C895   1.409       .  A
C883        C891   1.386       .  A
C884        C898   1.410       .  A
C884        C892   1.386       .  A
C885       N2142   1.349       .  A
C885        C893   1.385       .  A
C885        C896   1.408       .  A
C886        C894   1.386       .  A
C886        C897   1.409       .  A
C887        C888   1.379       .  A
C887        H899   1.082       .  S
C888        H900   1.082       .  S
C889        C890   1.380       .  A
C889        H901   1.082       .  S
C890        H902   1.082       .  S
C891       C2156   1.377   1_455  A
C891        H903   1.082       .  S
C892       C2155   1.377       .  A
C892        H904   1.082       .  S
C893       C2158   1.377   1_455  A
C893        H905   1.082       .  S
C894       C2157   1.377       .  A
C894        H906   1.082       .  S
C895       C1004   1.486       .  S
C896        C996   1.485       .  S
C897        C947   1.488       .  S
C898        C988   1.487       .  S
N909        C914   1.352       .  A
N909        C913   1.352       .  A
N909        H941   1.042       .  S
N910        C917   1.348       .  A
N910        C918   1.349       .  A
N911        C916   1.350       .  A
N911        C915   1.351       .  A
N911        H942   1.041       .  S
N912        C919   1.350       .  A
N912        C920   1.349       .  A
C913        C921   1.385       .  A
C913        C929   1.412       .  A
C914        C930   1.412       .  A
C914        C922   1.386       .  A
C915        C923   1.386       .  A
C915        C932   1.410       .  A
C916        C931   1.410       .  A
C916        C924   1.386       .  A
C917        C929   1.409       .  A
C917        C925   1.386       .  A
C918        C932   1.409       .  A
C918        C926   1.385       .  A
C919        C927   1.385       .  A
C919        C930   1.411       .  A
C920        C928   1.386       .  A
C920        C931   1.411       .  A
C921        C922   1.379       .  A
C921        H933   1.082       .  S
C922        H934   1.082       .  S
C923        C924   1.378       .  A
C923        H935   1.082       .  S
C924        H936   1.082       .  S
C925        C926   1.378       .  A
C925        H937   1.082       .  S
C926        H938   1.082       .  S
C927        C928   1.379       .  A
C927        H939   1.082       .  S
C928        H940   1.082       .  S
C929       C1020   1.488       .  S
C930       C1013   1.491       .  S
C931        C946   1.486       .  S
C932        C989   1.486       .  S
C943       C1156   1.479       .  S
C943        C948   1.404       .  A
C944       C1076   1.476       .  S
C944        C945   1.401       .  A
C945        C946   1.400       .  A
C945        H950   1.084       .  S
C947        C948   1.403       .  A
C948        H949   1.084       .  S
N951        C956   1.350       .  A
N951        C955   1.350       .  A
N951        H983   1.043       .  S
N952        C960   1.347       .  A
N953        C958   1.350       .  A
N953        C957   1.352       .  A
N953        H984   1.042       .  S
N954        C962   1.349       .  A
C955        C963   1.386       .  A
C955        C971   1.410       .  A
C956        C972   1.409       .  A
C956        C964   1.386       .  A
C957        C965   1.386       .  A
C957        C974   1.411       .  A
C958        C973   1.411       .  A
C958        C966   1.386       .  A
C959        C971   1.406       .  A
C959        C967   1.386       .  A
C960        C974   1.408       .  A
C960        C968   1.386       .  A
C961        C969   1.385       .  A
C961        C972   1.411       .  A
C962        C970   1.386       .  A
C962        C973   1.412       .  A
C963        C964   1.379       .  A
C963        H975   1.082       .  S
C964        H976   1.082       .  S
C965        C966   1.379       .  A
C965        H977   1.082       .  S
C966        H978   1.082       .  S
C967        H979   1.082       .  S
C968        H980   1.082       .  S
C969        H981   1.082       .  S
C970        H982   1.082       .  S
C971        C997   1.482       .  S
C972       C1005   1.489       .  S
C973       C1021   1.487       .  S
C974       C1012   1.484       .  S
C985       C1049   1.482       .  S
C985        C990   1.405       .  A
C986       C1239   1.478       .  S
C986        C987   1.404       .  A
C987        C988   1.398       .  A
C987        H992   1.084       .  S
C989        C990   1.401       .  A
C990        H991   1.084       .  S
C993       C1189   1.473       .  S
C993        C994   1.413       .  A
C993        C998   1.399       .  A
C994       C1059   1.477       .  S
C994        C995   1.403       .  A
C995        C996   1.400       .  A
C995       H1000   1.084       .  S
C996        C997   1.414       .  A
C997        C998   1.397       .  A
C998        H999   1.085       .  S
C1001      C1219   1.485       .  S
C1001      C1002   1.419       .  A
C1001      C1006   1.408       .  A
C1002      C1026   1.485       .  S
C1002      C1003   1.405       .  A
C1003      C1004   1.399       .  A
C1003      H1008   1.084       .  S
C1004      C1005   1.413       .  A
C1005      C1006   1.399       .  A
C1006      H1007   1.084       .  S
C1009      C1179   1.475       .  S
C1009      C2274   1.411       .  A
C1009      C1014   1.405       .  A
C1010      C1066   1.479       .  S
C1010      C2273   1.411   1_455  A
C1010      C1011   1.401       .  A
C1011      C1012   1.401       .  A
C1011      H1016   1.084       .  S
C1012      C2277   1.415   1_455  A
C1013      C2276   1.415       .  A
C1013      C1014   1.403       .  A
C1014      H1015   1.084       .  S
C1017      C1036   1.482       .  S
C1017      C2282   1.418   1_455  A
C1017      C1022   1.406       .  A
C1018      C1249   1.489       .  S
C1018      C2281   1.418       .  A
C1018      C1019   1.408       .  A
C1019      C1020   1.401       .  A
C1019      H1024   1.084       .  S
C1020      C2285   1.413       .  A
C1021      C2284   1.413   1_455  A
C1021      C1022   1.399       .  A
C1022      H1023   1.084       .  S
C1025      C1026   1.402       .  A
C1025      C1030   1.395       .  A
C1025      H1032   1.084       .  S
C1026      C1027   1.407       .  A
C1027      C1028   1.401       .  A
C1027      F1034   1.357       .  S
C1028      C1029   1.407       .  A
C1028      H1033   1.083       .  S
C1029      C1030   1.410       .  A
C1030      F1031   1.357       .  S
C1035      C1036   1.401       .  A
C1035      C1040   1.395       .  A
C1035      H1042   1.084       .  S
C1036      C1037   1.406       .  A
C1037      C1038   1.402       .  A
C1037      F2308   1.357       .  S
C1038      C1039   1.408       .  A
C1038      H1043   1.083       .  S
C1039      C1040   1.410       .  A
C1040      F1041   1.357       .  S
F1044      C2301   1.357       .  S
C1045      C1046   1.407       .  A
C1045      C1050   1.400       .  A
C1045      H1052   1.083       .  S
C1046      C1047   1.409       .  A
C1047      C1048   1.395       .  A
C1047      F1054   1.358       .  S
C1048      C1049   1.401       .  A
C1048      H1053   1.084       .  S
C1049      C1050   1.406       .  A
C1055      C1056   1.404       .  A
C1055      C1060   1.397       .  A
C1055      H1062   1.083       .  S
C1056      C1057   1.408       .  A
C1057      C1058   1.398       .  A
C1057      F1064   1.357       .  S
C1058      C1059   1.402       .  A
C1058      H1063   1.084       .  S
C1059      C1060   1.403       .  A
C1060      F1061   1.355       .  S
C1065      C1066   1.401       .  A
C1065      C1070   1.398       .  A
C1065      H1072   1.082       .  S
C1066      C1067   1.404       .  A
C1067      C1068   1.400       .  A
C1067      F1074   1.357       .  S
C1068      C1069   1.406       .  A
C1068      H1073   1.083       .  S
C1069      C1070   1.408       .  A
C1070      F1071   1.358       .  S
C1075      C1076   1.401       .  A
C1075      C1080   1.398       .  A
C1075      H1082   1.083       .  S
C1076      C1077   1.403       .  A
C1077      C1078   1.398       .  A
C1077      F1084   1.357       .  S
C1078      C1079   1.406       .  A
C1078      H1083   1.083       .  S
C1079      C1080   1.408       .  A
C1080      F1081   1.357       .  S
C1085      C1086   1.405       .  A
C1085      C1090   1.391       .  A
C1085      H1092   1.083       .  S
C1086      C1087   1.408       .  A
C1087      C1088   1.402       .  A
C1087      F1094   1.357       .  S
C1088      C1089   1.407       .  A
C1088      H1093   1.083       .  S
C1089      C1090   1.402       .  A
C1090      F1091   1.358       .  S
C1095      C1096   1.405       .  A
C1095      C1100   1.400       .  A
C1095      H1102   1.083       .  S
C1096      C1097   1.402       .  A
C1097      C1098   1.393       .  A
C1097      F1104   1.358       .  S
C1098      C1099   1.406       .  A
C1098      H1103   1.083       .  S
C1099      C1100   1.407       .  A
C1100      F1101   1.357       .  S
C1105      C1106   1.406       .  A
C1105      C1110   1.403       .  A
C1105      H1112   1.083       .  S
C1106      C1107   1.403       .  A
C1107      C1108   1.394       .  A
C1107      F1114   1.358       .  S
C1108      C1109   1.406       .  A
C1108      H1113   1.083       .  S
C1109      C1110   1.409       .  A
C1110      F1111   1.357       .  S
C1115      C1116   1.407       .  A
C1115      C1120   1.404       .  A
C1115      H1122   1.083       .  S
C1116      C1117   1.402       .  A
C1117      C1118   1.394       .  A
C1117      F1124   1.358       .  S
C1118      C1119   1.406       .  A
C1118      H1123   1.083       .  S
C1119      C1120   1.409       .  A
C1120      F1121   1.357       .  S
C1125      C1126   1.401       .  A
C1125      C1130   1.397       .  A
C1125      H1132   1.083       .  S
C1126      C1127   1.403       .  A
C1127      C1128   1.399       .  A
C1127      F1134   1.358       .  S
C1128      C1129   1.404       .  A
C1128      H1133   1.083       .  S
C1129      C1130   1.405       .  A
C1130      F1131   1.357       .  S
C1135      C1136   1.401       .  A
C1135      C1140   1.398       .  A
C1135      H1142   1.083       .  S
C1136      C1137   1.405       .  A
C1137      C1138   1.400       .  A
C1137      F2408   1.357       .  S
C1138      C1139   1.403       .  A
C1138      H1143   1.083       .  S
C1139      C1140   1.406       .  A
C1140      F1141   1.358       .  S
F1144      C2401   1.357       .  S
C1145      C1146   1.406       .  A
C1145      C1150   1.396       .  A
C1145      H1152   1.083       .  S
C1146      C1147   1.408       .  A
C1147      C1148   1.402       .  A
C1147      F1154   1.357       .  S
C1148      C1149   1.406       .  A
C1148      H1153   1.082       .  S
C1149      C1150   1.403       .  A
C1150      F1151   1.358       .  S
C1155      C1156   1.403       .  A
C1155      C1160   1.401       .  A
C1155      H1162   1.083       .  S
C1156      C1157   1.404       .  A
C1157      C1158   1.398       .  A
C1158      C1159   1.403       .  A
C1158      H1163   1.083       .  S
C1159      C1160   1.406       .  A
C1160      F1161   1.358       .  S
C1165      C1166   1.406       .  A
C1165      C1170   1.395       .  A
C1165      H1172   1.084       .  S
C1166      C1167   1.405       .  A
C1167      C1168   1.397       .  A
C1167      F1174   1.357       .  S
C1168      C1169   1.404       .  A
C1168      H1173   1.083       .  S
C1169      C1170   1.402       .  A
C1170      F1171   1.358       .  S
C1175      C1176   1.405       .  A
C1175      C1180   1.399       .  A
C1175      H1182   1.083       .  S
C1176      C1177   1.408       .  A
C1177      C1178   1.397       .  A
C1177      F1184   1.357       .  S
C1178      C1179   1.400       .  A
C1178      H1183   1.083       .  S
C1179      C1180   1.404       .  A
C1180      F1181   1.357       .  S
C1185      C1186   1.405       .  A
C1185      C1190   1.396       .  A
C1185      H1192   1.084       .  S
C1186      C1187   1.406       .  A
C1187      C1188   1.397       .  A
C1187      F1194   1.357       .  S
C1188      C1189   1.401       .  A
C1188      H1193   1.083       .  S
C1189      C1190   1.402       .  A
C1190      F1191   1.356       .  S
C1195      C1196   1.400       .  A
C1195      C1200   1.397       .  A
C1195      H1202   1.084       .  S
C1196      C1197   1.403       .  A
C1197      C1198   1.400       .  A
C1197      F1204   1.357       .  S
C1198      C1199   1.407       .  A
C1198      H1203   1.083       .  S
C1199      C1200   1.408       .  A
C1200      F1201   1.358       .  S
C1205      C1206   1.404       .  A
C1205      C1210   1.400       .  A
C1205      H1212   1.083       .  S
C1206      C1207   1.403       .  A
C1207      C1208   1.397       .  A
C1207      F1214   1.358       .  S
C1208      C1209   1.407       .  A
C1208      H1213   1.083       .  S
C1209      C1210   1.409       .  A
C1210      F1211   1.357       .  S
C1215      C1216   1.406       .  A
C1215      C1220   1.401       .  A
C1215      H1222   1.083       .  S
C1216      C1217   1.408       .  A
C1217      C1218   1.393       .  A
C1217      F1224   1.358       .  S
C1218      C1219   1.402       .  A
C1218      H1223   1.084       .  S
C1219      C1220   1.409       .  A
C1220      F1221   1.357       .  S
C1225      C1226   1.402       .  A
C1225      C1230   1.397       .  A
C1225      H1232   1.084       .  S
C1226      C1227   1.406       .  A
C1227      C1228   1.400       .  A
C1227      F1234   1.357       .  S
C1228      C1229   1.406       .  A
C1228      H1233   1.083       .  S
C1229      C1230   1.411       .  A
C1230      F1231   1.358       .  S
C1235      C1236   1.404       .  A
C1235      C1240   1.399       .  A
C1235      H1242   1.083       .  S
C1236      C1237   1.409       .  A
C1237      C1238   1.392       .  A
C1237      F1244   1.358       .  S
C1238      C1239   1.399       .  A
C1238      H1243   1.084       .  S
C1239      C1240   1.407       .  A
C1245      C1246   1.407       .  A
C1245      C1250   1.395       .  A
C1245      H1252   1.083       .  S
C1246      C1247   1.408       .  A
C1247      C1248   1.403       .  A
C1247      F1254   1.357       .  S
C1248      C1249   1.407       .  A
C1248      H1253   1.083       .  S
C1249      C1250   1.405       .  A
C1250      F1251   1.358       .  S
C1255      C1256   1.406       .  A
C1255      C1260   1.398       .  A
C1255      H1262   1.083       .  S
C1256      C1257   1.409       .  A
C1257      C1258   1.393       .  A
C1257      F1264   1.358       .  S
C1258      C1259   1.401       .  A
C1258      H1263   1.084       .  S
C1259      C1260   1.405       .  A
C1260      F1261   1.357       .  S
Zn1265     O1269   1.953   1_554  S
Zn1265     O1270   1.998       .  S
Zn1265     O1274   2.030       .  S
Zn1265     O1281   2.022   1_554  S
Zn1266     O1269   1.955   1_554  S
Zn1266     O1271   1.987       .  S
Zn1266     O1273   2.046       .  S
Zn1266     O1277   2.038   1_554  S
Zn1267     O1269   1.954   1_554  S
Zn1267     O1272   1.998       .  S
Zn1267     O1275   2.032       .  S
Zn1267     O1278   2.038   1_554  S
Zn1268     O1269   1.932       .  S
Zn1268     O1276   2.000       .  S
Zn1268     O1279   1.994       .  S
Zn1268     O1280   1.987       .  S
O1270      C1282   1.272       .  A
O1271      C1283   1.272       .  A
O1272      C1284   1.273       .  A
O1273      C1282   1.277       .  A
O1274      C1284   1.276       .  A
O1275      C1283   1.276       .  A
O1276      C1285   1.272       .  A
O1277      C1286   1.276       .  A
O1278      C1285   1.275       .  A
O1279      C1286   1.271       .  A
O1280      C1287   1.271       .  A
O1281      C1287   1.275       .  A
C1282      C1878   1.484       .  S
C1283      C1868   1.476       .  S
C1284      C1848   1.480       .  S
C1285      C1841   1.482       .  S
C1286      C1861   1.483       .  S
C1287      C1888   1.477       .  S
Zn1288     O1292   1.947       .  S
Zn1288     O1293   2.010       .  S
Zn1288     O1297   2.000       .  S
Zn1288     O1304   2.004       .  S
Zn1289     O1292   1.955       .  S
Zn1289     O1294   2.007       .  S
Zn1289     O1296   2.034       .  S
Zn1289     O1300   2.033       .  S
Zn1290     O1292   1.960       .  S
Zn1290     O1295   2.033       .  S
Zn1290     O1298   2.048       .  S
Zn1290     O1301   2.015       .  S
Zn1291     O1292   1.955       .  S
Zn1291     O1299   2.030       .  S
Zn1291     O1302   1.982       .  S
Zn1291     O1303   2.011       .  S
O1293      C1305   1.272       .  A
O1294      C1306   1.273       .  A
O1295      C1307   1.277       .  A
O1296      C1305   1.275       .  A
O1297      C1307   1.273       .  A
O1298      C1306   1.277       .  A
O1299      C1308   1.274       .  A
O1300      C1309   1.276       .  A
O1301      C1308   1.273       .  A
O1302      C1309   1.271       .  A
O1303      C1310   1.272       .  A
O1304      C1310   1.271       .  A
C1305      C1791   1.474       .  S
C1306      C1778   1.485       .  S
C1307      C1808   1.480       .  S
C1308      C1828   1.468       .  S
C1309      C1798   1.470       .  S
C1310      C1818   1.469       .  S
N1311      C1316   1.351       .  A
N1311      C1315   1.352       .  A
N1311      H1343   1.042       .  S
N1312      C1951   1.348       .  A
N1312      C1320   1.348   1_565  A
N1313      C1318   1.351       .  A
N1313      C1317   1.351       .  A
N1313      H1344   1.042       .  S
N1314      C1953   1.349       .  A
N1314      C1322   1.350   1_565  A
C1315      C1323   1.386       .  A
C1315      C1331   1.412       .  A
C1316      C1332   1.411       .  A
C1316      C1324   1.386       .  A
C1317      C1325   1.386       .  A
C1317      C1334   1.410       .  A
C1318      C1333   1.411       .  A
C1318      C1326   1.386       .  A
C1319      N1944   1.348       .  A
C1319      C1331   1.409       .  A
C1319      C1327   1.386       .  A
C1320      C1334   1.409       .  A
C1320      C1328   1.386       .  A
C1321      N1946   1.350       .  A
C1321      C1329   1.386       .  A
C1321      C1332   1.411       .  A
C1322      C1330   1.385       .  A
C1322      C1333   1.411       .  A
C1323      C1324   1.379       .  A
C1323      H1335   1.082       .  S
C1324      H1336   1.082       .  S
C1325      C1326   1.377       .  A
C1325      H1337   1.082       .  S
C1326      H1338   1.082       .  S
C1327      C1960   1.378       .  A
C1327      H1339   1.082       .  S
C1328      C1959   1.378   1_545  A
C1328      H1340   1.082       .  S
C1329      C1962   1.378       .  A
C1329      H1341   1.082       .  S
C1330      C1961   1.379   1_545  A
C1330      H1342   1.082       .  S
C1331      C1432   1.486       .  S
C1332      C1441   1.489       .  S
C1333      C1417   1.489       .  S
C1334      C1456   1.483       .  S
N1345      C1350   1.352       .  A
N1345      C1349   1.351       .  A
N1345      H1377   1.042       .  S
N1346      C1353   1.349       .  A
N1346      C1354   1.349       .  A
N1347      C1352   1.351       .  A
N1347      C1351   1.352       .  A
N1347      H1378   1.041       .  S
N1348      C1355   1.350       .  A
N1348      C1356   1.350       .  A
C1349      C1357   1.386       .  A
C1349      C1365   1.411       .  A
C1350      C1366   1.410       .  A
C1350      C1358   1.386       .  A
C1351      C1359   1.386       .  A
C1351      C1368   1.412       .  A
C1352      C1367   1.412       .  A
C1352      C1360   1.386       .  A
C1353      C1365   1.409       .  A
C1353      C1361   1.385       .  A
C1354      C1368   1.411       .  A
C1354      C1362   1.386       .  A
C1355      C1363   1.386       .  A
C1355      C1366   1.412       .  A
C1356      C1364   1.386       .  A
C1356      C1367   1.412       .  A
C1357      C1358   1.378       .  A
C1357      H1369   1.082       .  S
C1358      H1370   1.082       .  S
C1359      C1360   1.379       .  A
C1359      H1371   1.082       .  S
C1360      H1372   1.082       .  S
C1361      C1362   1.378       .  A
C1361      H1373   1.082       .  S
C1362      H1374   1.082       .  S
C1363      C1364   1.380       .  A
C1363      H1375   1.082       .  S
C1364      H1376   1.082       .  S
C1365      C1424   1.488       .  S
C1366      C1448   1.489       .  S
C1367      C1457   1.489       .  S
C1368      C1416   1.490       .  S
N1379      C1384   1.351       .  A
N1379      C1383   1.350       .  A
N1379      H1411   1.041       .  S
N1380      C1388   1.349       .  A
N1381      C1386   1.350       .  A
N1381      C1385   1.350       .  A
N1381      H1412   1.041       .  S
N1382      C1390   1.348       .  A
C1383      C1391   1.386       .  A
C1383      C1399   1.410       .  A
C1384      C1400   1.409       .  A
C1384      C1392   1.385       .  A
C1385      C1393   1.386       .  A
C1385      C1402   1.410       .  A
C1386      C1401   1.409       .  A
C1386      C1394   1.386       .  A
C1387      C1399   1.410       .  A
C1387      C1395   1.386       .  A
C1388      C1402   1.409       .  A
C1388      C1396   1.385       .  A
C1389      C1397   1.385       .  A
C1389      C1400   1.408       .  A
C1390      C1398   1.386       .  A
C1390      C1401   1.408       .  A
C1391      C1392   1.379       .  A
C1391      H1403   1.082       .  S
C1392      H1404   1.082       .  S
C1393      C1394   1.379       .  A
C1393      H1405   1.082       .  S
C1394      H1406   1.082       .  S
C1395      H1407   1.082       .  S
C1396      H1408   1.082       .  S
C1397      H1409   1.082       .  S
C1398      H1410   1.082       .  S
C1399      C1433   1.485       .  S
C1400      C1440   1.485       .  S
C1401      C1425   1.482       .  S
C1402      C1449   1.485       .  S
C1413      C1781   1.489       .  S
C1413      C1418   1.407       .  A
C1414      C1768   1.481       .  S
C1414      C1415   1.406       .  A
C1415      C1416   1.401       .  A
C1415      H1420   1.084       .  S
C1417      C1418   1.402       .  A
C1418      H1419   1.084       .  S
C1421      C1761   1.481       .  S
C1421      C2054   1.413       .  A
C1421      C1426   1.402       .  A
C1422      C1801   1.473       .  S
C1422      C2053   1.412   1_545  A
C1422      C1423   1.403       .  A
C1423      C1424   1.399       .  A
C1423      H1428   1.084       .  S
C1424      C2057   1.414   1_545  A
C1425      C2056   1.414       .  A
C1425      C1426   1.399       .  A
C1426      H1427   1.084       .  S
C1429      C1891   1.477       .  S
C1429      C1430   1.415       .  A
C1429      C1434   1.404       .  A
C1430      C1748   1.486       .  S
C1430      C1431   1.406       .  A
C1431      C1432   1.401       .  A
C1431      H1436   1.084       .  S
C1432      C1433   1.413       .  A
C1433      C1434   1.398       .  A
C1434      H1435   1.084       .  S
C1437      C1738   1.484       .  S
C1437      C1438   1.419       .  A
C1437      C1442   1.407       .  A
C1438      C1831   1.488       .  S
C1438      C1439   1.406       .  A
C1439      C1440   1.399       .  A
C1439      H1444   1.084       .  S
C1440      C1441   1.413       .  A
C1441      C1442   1.400       .  A
C1442      H1443   1.084       .  S
C1445      C1728   1.483       .  S
C1445      C2078   1.414       .  A
C1445      C1450   1.404       .  A
C1446      C1838   1.480       .  S
C1446      C2077   1.413   1_545  A
C1446      C1447   1.405       .  A
C1447      C1448   1.403       .  A
C1447      H1452   1.084       .  S
C1448      C2081   1.415   1_545  A
C1449      C2080   1.415       .  A
C1449      C1450   1.399       .  A
C1450      H1451   1.084       .  S
C1453      C1721   1.481       .  S
C1453      C1458   1.407       .  A
C1454      C1858   1.484       .  S
C1454      C1455   1.404       .  A
C1455      C1456   1.401       .  A
C1455      H1460   1.084       .  S
C1457      C1458   1.398       .  A
C1458      H1459   1.084       .  S
Zn1461     O1465   1.955       .  S
Zn1461     O1466   2.036       .  S
Zn1461     O1470   2.023       .  S
Zn1461     O1477   2.002       .  S
Zn1462     O1465   1.962       .  S
Zn1462     O1467   2.029       .  S
Zn1462     O1469   2.008       .  S
Zn1462     O1473   2.041       .  S
Zn1463     O1465   1.952       .  S
Zn1463     O1468   2.013       .  S
Zn1463     O1471   1.997       .  S
Zn1463     O1474   2.004       .  S
Zn1464     O1465   1.956       .  S
Zn1464     O1472   2.023       .  S
Zn1464     O1475   2.001       .  S
Zn1464     O1476   2.032       .  S
O1466      C1478   1.275       .  A
O1467      C1479   1.276       .  A
O1468      C1480   1.272       .  A
O1469      C1478   1.272       .  A
O1470      C1480   1.274       .  A
O1471      C1479   1.272       .  A
O1472      C1481   1.275       .  A
O1473      C1482   1.276       .  A
O1474      C1481   1.272       .  A
O1475      C1482   1.273       .  A
O1476      C1483   1.275       .  A
O1477      C1483   1.271       .  A
C1478      C1771   1.468       .  S
C1479      C1688   1.476       .  S
C1480      C1701   1.474       .  S
C1481      C1711   1.478       .  S
C1482      C1741   1.482       .  S
C1483      C1758   1.466       .  S
Zn1484     O1488   1.932       .  S
Zn1484     O1489   2.003       .  S
Zn1484     O1493   2.004       .  S
Zn1484     O1500   1.996       .  S
Zn1485     O1488   1.957   1_556  S
Zn1485     O1490   1.989       .  S
Zn1485     O1492   2.033   1_556  S
Zn1485     O1496   2.045       .  S
Zn1486     O1488   1.960   1_556  S
Zn1486     O1491   2.036   1_556  S
Zn1486     O1494   2.034       .  S
Zn1486     O1497   1.995       .  S
Zn1487     O1488   1.957   1_556  S
Zn1487     O1495   2.036       .  S
Zn1487     O1498   2.003       .  S
Zn1487     O1499   2.032   1_556  S
O1489      C1501   1.272       .  A
O1490      C1502   1.272       .  A
O1491      C1503   1.275       .  A
O1492      C1501   1.276       .  A
O1493      C1503   1.272       .  A
O1494      C1502   1.276       .  A
O1495      C1504   1.277       .  A
O1496      C1505   1.276       .  A
O1497      C1504   1.272       .  A
O1498      C1505   1.273       .  A
O1499      C1506   1.275       .  A
O1500      C1506   1.272       .  A
C1501      C1661   1.485       .  S
C1502      C1718   1.477       .  S
C1503      C1671   1.484       .  S
C1504      C1731   1.479       .  S
C1505      C1751   1.483       .  S
C1506      C1678   1.482       .  S
N1507      C1512   1.351       .  A
N1507      C1511   1.351       .  A
N1507      H1539   1.041       .  S
N1508      C1516   1.348   1_455  A
N1509      C1514   1.352       .  A
N1509      C1513   1.351       .  A
N1509      H1540   1.041       .  S
N1510      C1518   1.349   1_455  A
C1511      C1519   1.386       .  A
C1511      C1527   1.410       .  A
C1512      C1528   1.409       .  A
C1512      C1520   1.385       .  A
C1513      C1521   1.386       .  A
C1513      C1530   1.412       .  A
C1514      C1529   1.412       .  A
C1514      C1522   1.385       .  A
C1515      C1527   1.410       .  A
C1515      C1523   1.386       .  A
C1516      C1530   1.410       .  A
C1516      C1524   1.386       .  A
C1517      C1525   1.385       .  A
C1517      C1528   1.409       .  A
C1518      C1526   1.386       .  A
C1518      C1529   1.410       .  A
C1519      C1520   1.379       .  A
C1519      H1531   1.082       .  S
C1520      H1532   1.082       .  S
C1521      C1522   1.380       .  A
C1521      H1533   1.082       .  S
C1522      H1534   1.082       .  S
C1523      H1535   1.082       .  S
C1524      H1536   1.082       .  S
C1525      H1537   1.082       .  S
C1526      H1538   1.082       .  S
C1527      C1636   1.486       .  S
C1528      C1628   1.485       .  S
C1529      C1579   1.489       .  S
C1530      C1620   1.486       .  S
N1541      C1546   1.352       .  A
N1541      C1545   1.352       .  A
N1541      H1573   1.042       .  S
N1542      C1549   1.348       .  A
N1542      C1550   1.349       .  A
N1543      C1548   1.350       .  A
N1543      C1547   1.351       .  A
N1543      H1574   1.041       .  S
N1544      C1551   1.350       .  A
N1544      C1552   1.349       .  A
C1545      C1553   1.386       .  A
C1545      C1561   1.412       .  A
C1546      C1562   1.412       .  A
C1546      C1554   1.386       .  A
C1547      C1555   1.385       .  A
C1547      C1564   1.409       .  A
C1548      C1563   1.409       .  A
C1548      C1556   1.386       .  A
C1549      C1561   1.409       .  A
C1549      C1557   1.386       .  A
C1550      C1564   1.409       .  A
C1550      C1558   1.385       .  A
C1551      C1559   1.385       .  A
C1551      C1562   1.412       .  A
C1552      C1560   1.386       .  A
C1552      C1563   1.412       .  A
C1553      C1554   1.379       .  A
C1553      H1565   1.082       .  S
C1554      H1566   1.082       .  S
C1555      C1556   1.377       .  A
C1555      H1567   1.082       .  S
C1556      H1568   1.082       .  S
C1557      C1558   1.378       .  A
C1557      H1569   1.082       .  S
C1558      H1570   1.082       .  S
C1559      C1560   1.380       .  A
C1559      H1571   1.082       .  S
C1560      H1572   1.082       .  S
C1561      C1652   1.487       .  S
C1562      C1645   1.491       .  S
C1563      C1578   1.486       .  S
C1564      C1621   1.485       .  S
C1575      C1788   1.479       .  S
C1575      C2208   1.411   1_545  A
C1575      C1580   1.405       .  A
C1576      C1708   1.476       .  S
C1576      C2207   1.412       .  A
C1576      C1577   1.401       .  A
C1577      C1578   1.400       .  A
C1577      H1582   1.084       .  S
C1578      C2211   1.416       .  A
C1579      C2210   1.416   1_545  A
C1579      C1580   1.404       .  A
C1580      H1581   1.084       .  S
N1583      C1588   1.351       .  A
N1583      C1587   1.350       .  A
N1583      H1615   1.043       .  S
N1584      C2223   1.347       .  A
N1584      C1592   1.347       .  A
N1585      C1590   1.351       .  A
N1585      C1589   1.352       .  A
N1585      H1616   1.042       .  S
N1586      C2225   1.350       .  A
N1586      C1594   1.350       .  A
C1587      C1595   1.386       .  A
C1587      C1603   1.410       .  A
C1588      C1604   1.410       .  A
C1588      C1596   1.386       .  A
C1589      C1597   1.386       .  A
C1589      C1606   1.412       .  A
C1590      C1605   1.411       .  A
C1590      C1598   1.386       .  A
C1591      N2216   1.347   1_545  A
C1591      C1603   1.407       .  A
C1591      C1599   1.386       .  A
C1592      C1606   1.408       .  A
C1592      C1600   1.386       .  A
C1593      N2218   1.350       .  A
C1593      C1601   1.385       .  A
C1593      C1604   1.411       .  A
C1594      C1602   1.386       .  A
C1594      C1605   1.412       .  A
C1595      C1596   1.379       .  A
C1595      H1607   1.082       .  S
C1596      H1608   1.082       .  S
C1597      C1598   1.379       .  A
C1597      H1609   1.082       .  S
C1598      H1610   1.082       .  S
C1599      C2232   1.376   1_545  A
C1599      H1611   1.082       .  S
C1600      C2231   1.376       .  A
C1600      H1612   1.082       .  S
C1601      C2234   1.378   1_545  A
C1601      H1613   1.082       .  S
C1602      C2233   1.378       .  A
C1602      H1614   1.082       .  S
C1603      C1629   1.483       .  S
C1604      C1637   1.488       .  S
C1605      C1653   1.488       .  S
C1606      C1644   1.484       .  S
C1617      C1681   1.482       .  S
C1617      C2250   1.415       .  A
C1617      C1622   1.405       .  A
C1618      C1871   1.480       .  S
C1618      C2249   1.415   1_545  A
C1618      C1619   1.404       .  A
C1619      C1620   1.398       .  A
C1619      H1624   1.084       .  S
C1620      C2253   1.413   1_545  A
C1621      C2252   1.413       .  A
C1621      C1622   1.401       .  A
C1622      H1623   1.084       .  S
C1625      C1821   1.472       .  S
C1625      C1626   1.411       .  A
C1625      C1630   1.399       .  A
C1626      C1691   1.477       .  S
C1626      C1627   1.403       .  A
C1627      C1628   1.401       .  A
C1627      H1632   1.084       .  S
C1628      C1629   1.415       .  A
C1629      C1630   1.398       .  A
C1630      H1631   1.084       .  S
C1633      C1851   1.485       .  S
C1633      C1634   1.419       .  A
C1633      C1638   1.407       .  A
C1634      C1658   1.486       .  S
C1634      C1635   1.406       .  A
C1635      C1636   1.400       .  A
C1635      H1640   1.084       .  S
C1636      C1637   1.413       .  A
C1637      C1638   1.399       .  A
C1638      H1639   1.084       .  S
C1641      C1811   1.478       .  S
C1641      C1646   1.406       .  A
C1642      C1698   1.478       .  S
C1642      C1643   1.401       .  A
C1643      C1644   1.401       .  A
C1643      H1648   1.084       .  S
C1645      C1646   1.402       .  A
C1646      H1647   1.084       .  S
C1649      C1668   1.482       .  S
C1649      C1654   1.406       .  A
C1650      C1881   1.488       .  S
C1650      C1651   1.407       .  A
C1651      C1652   1.401       .  A
C1651      H1656   1.084       .  S
C1653      C1654   1.399       .  A
C1654      H1655   1.084       .  S
C1657      C1658   1.402       .  A
C1657      C1662   1.396       .  A
C1657      H1664   1.084       .  S
C1658      C1659   1.407       .  A
C1659      C1660   1.401       .  A
C1659      F1666   1.357       .  S
C1660      C1661   1.407       .  A
C1660      H1665   1.083       .  S
C1661      C1662   1.410       .  A
C1662      F1663   1.358       .  S
C1667      C1668   1.401       .  A
C1667      C1672   1.396       .  A
C1667      H1674   1.084       .  S
C1668      C1669   1.406       .  A
C1669      C1670   1.402       .  A
C1670      C1671   1.408       .  A
C1670      H1675   1.083       .  S
C1671      C1672   1.410       .  A
C1672      F1673   1.357       .  S
C1677      C1678   1.407       .  A
C1677      C1682   1.401       .  A
C1677      H1684   1.083       .  S
C1678      C1679   1.409       .  A
C1679      C1680   1.395       .  A
C1679      F1686   1.357       .  S
C1680      C1681   1.401       .  A
C1680      H1685   1.084       .  S
C1681      C1682   1.407       .  A
C1682      F2315   1.357       .  S
F1683      C2314   1.357       .  S
C1687      C1688   1.404       .  A
C1687      C1692   1.397       .  A
C1687      H1694   1.083       .  S
C1688      C1689   1.409       .  A
C1689      C1690   1.397       .  A
C1689      F1696   1.358       .  S
C1690      C1691   1.401       .  A
C1690      H1695   1.084       .  S
C1691      C1692   1.404       .  A
C1692      F1693   1.356       .  S
C1697      C1698   1.400       .  A
C1697      C1702   1.397       .  A
C1697      H1704   1.083       .  S
C1698      C1699   1.405       .  A
C1699      C1700   1.401       .  A
C1699      F1706   1.357       .  S
C1700      C1701   1.405       .  A
C1700      H1705   1.083       .  S
C1701      C1702   1.406       .  A
C1702      F1703   1.358       .  S
C1707      C1708   1.401       .  A
C1707      C1712   1.398       .  A
C1707      H1714   1.083       .  S
C1708      C1709   1.403       .  A
C1709      C1710   1.397       .  A
C1709      F1716   1.356       .  S
C1710      C1711   1.405       .  A
C1710      H1715   1.083       .  S
C1711      C1712   1.409       .  A
C1712      F1713   1.358       .  S
C1717      C1718   1.405       .  A
C1717      C1722   1.391       .  A
C1717      H1724   1.083       .  S
C1718      C1719   1.408       .  A
C1719      C1720   1.401       .  A
C1719      F1726   1.357       .  S
C1720      C1721   1.406       .  A
C1720      H1725   1.083       .  S
C1721      C1722   1.402       .  A
C1722      F1723   1.358       .  S
C1727      C1728   1.405       .  A
C1727      C1732   1.400       .  A
C1727      H1734   1.083       .  S
C1728      C1729   1.403       .  A
C1729      C1730   1.394       .  A
C1729      F1736   1.358       .  S
C1730      C1731   1.406       .  A
C1730      H1735   1.083       .  S
C1731      C1732   1.407       .  A
C1732      F1733   1.357       .  S
C1737      C1738   1.405       .  A
C1737      C1742   1.402       .  A
C1737      H1744   1.083       .  S
C1738      C1739   1.404       .  A
C1739      C1740   1.395       .  A
C1739      F1746   1.358       .  S
C1740      C1741   1.406       .  A
C1740      H1745   1.083       .  S
C1741      C1742   1.409       .  A
C1742      F1743   1.357       .  S
C1747      C1748   1.407       .  A
C1747      C1752   1.404       .  A
C1747      H1754   1.083       .  S
C1748      C1749   1.402       .  A
C1749      C1750   1.395       .  A
C1749      F1756   1.358       .  S
C1750      C1751   1.406       .  A
C1750      H1755   1.083       .  S
C1751      C1752   1.409       .  A
C1752      F1753   1.357       .  S
C1757      C1758   1.401       .  A
C1757      C1762   1.398       .  A
C1757      H1764   1.083       .  S
C1758      C1759   1.404       .  A
C1759      C1760   1.399       .  A
C1759      F1766   1.358       .  S
C1760      C1761   1.404       .  A
C1760      H1765   1.083       .  S
C1761      C1762   1.405       .  A
C1762      F1763   1.357       .  S
C1767      C1768   1.404       .  A
C1767      C1772   1.399       .  A
C1767      H1774   1.083       .  S
C1768      C1769   1.406       .  A
C1769      C1770   1.400       .  A
C1770      C1771   1.402       .  A
C1770      H1775   1.083       .  S
C1771      C1772   1.404       .  A
C1772      F1773   1.357       .  S
C1777      C1778   1.407       .  A
C1777      C1782   1.397       .  A
C1777      H1784   1.083       .  S
C1778      C1779   1.408       .  A
C1779      C1780   1.403       .  A
C1779      F1786   1.357       .  S
C1780      C1781   1.407       .  A
C1780      H1785   1.082       .  S
C1781      C1782   1.405       .  A
C1782      F1783   1.358       .  S
C1787      C1788   1.403       .  A
C1787      C1792   1.401       .  A
C1787      H1794   1.083       .  S
C1788      C1789   1.403       .  A
C1789      C1790   1.398       .  A
C1789      F2428   1.357       .  S
C1790      C1791   1.403       .  A
C1790      H1795   1.083       .  S
C1791      C1792   1.407       .  A
C1792      F1793   1.358       .  S
F1796      C2421   1.357       .  S
C1797      C1798   1.406       .  A
C1797      C1802   1.394       .  A
C1797      H1804   1.084       .  S
C1798      C1799   1.404       .  A
C1799      C1800   1.397       .  A
C1799      F1806   1.357       .  S
C1800      C1801   1.403       .  A
C1800      H1805   1.083       .  S
C1801      C1802   1.401       .  A
C1802      F1803   1.358       .  S
C1807      C1808   1.406       .  A
C1807      C1812   1.399       .  A
C1807      H1814   1.083       .  S
C1808      C1809   1.410       .  A
C1809      C1810   1.397       .  A
C1809      F1816   1.357       .  S
C1810      C1811   1.400       .  A
C1810      H1815   1.084       .  S
C1811      C1812   1.405       .  A
C1812      F1813   1.357       .  S
C1817      C1818   1.404       .  A
C1817      C1822   1.397       .  A
C1817      H1824   1.084       .  S
C1818      C1819   1.405       .  A
C1819      C1820   1.397       .  A
C1819      F1826   1.357       .  S
C1820      C1821   1.401       .  A
C1820      H1825   1.083       .  S
C1821      C1822   1.403       .  A
C1822      F1823   1.357       .  S
C1827      C1828   1.400       .  A
C1827      C1832   1.398       .  A
C1827      H1834   1.083       .  S
C1828      C1829   1.403       .  A
C1829      C1830   1.401       .  A
C1829      F1836   1.357       .  S
C1830      C1831   1.407       .  A
C1830      H1835   1.083       .  S
C1831      C1832   1.408       .  A
C1832      F1833   1.358       .  S
C1837      C1838   1.403       .  A
C1837      C1842   1.400       .  A
C1837      H1844   1.083       .  S
C1838      C1839   1.402       .  A
C1839      C1840   1.397       .  A
C1839      F1846   1.358       .  S
C1840      C1841   1.407       .  A
C1840      H1845   1.083       .  S
C1841      C1842   1.409       .  A
C1842      F1843   1.357       .  S
C1847      C1848   1.406       .  A
C1847      C1852   1.401       .  A
C1847      H1854   1.083       .  S
C1848      C1849   1.408       .  A
C1849      C1850   1.393       .  A
C1849      F1856   1.358       .  S
C1850      C1851   1.402       .  A
C1850      H1855   1.084       .  S
C1851      C1852   1.408       .  A
C1852      F1853   1.357       .  S
C1857      C1858   1.402       .  A
C1857      C1862   1.397       .  A
C1857      H1864   1.084       .  S
C1858      C1859   1.406       .  A
C1859      C1860   1.399       .  A
C1859      F1866   1.357       .  S
C1860      C1861   1.406       .  A
C1860      H1865   1.083       .  S
C1861      C1862   1.411       .  A
C1862      F1863   1.358       .  S
C1867      C1868   1.404       .  A
C1867      C1872   1.400       .  A
C1867      H1874   1.083       .  S
C1868      C1869   1.409       .  A
C1869      C1870   1.392       .  A
C1869      F1876   1.358       .  S
C1870      C1871   1.400       .  A
C1870      H1875   1.084       .  S
C1871      C1872   1.408       .  A
C1872      F2505   1.357       .  S
F1873      C2504   1.357       .  S
C1877      C1878   1.406       .  A
C1877      C1882   1.395       .  A
C1877      H1884   1.083       .  S
C1878      C1879   1.408       .  A
C1879      C1880   1.403       .  A
C1879      F1886   1.357       .  S
C1880      C1881   1.407       .  A
C1880      H1885   1.083       .  S
C1881      C1882   1.405       .  A
C1882      F1883   1.358       .  S
C1887      C1888   1.406       .  A
C1887      C1892   1.398       .  A
C1887      H1894   1.083       .  S
C1888      C1889   1.409       .  A
C1889      C1890   1.393       .  A
C1889      F1896   1.358       .  S
C1890      C1891   1.400       .  A
C1890      H1895   1.084       .  S
C1891      C1892   1.405       .  A
C1892      F1893   1.357       .  S
Zn1897     O1901   1.952   1_554  S
Zn1897     O1902   1.999       .  S
Zn1897     O1906   2.031       .  S
Zn1897     O1913   2.020   1_554  S
Zn1898     O1901   1.955   1_554  S
Zn1898     O1903   1.985       .  S
Zn1898     O1905   2.047       .  S
Zn1898     O1909   2.038   1_554  S
Zn1899     O1901   1.953   1_554  S
Zn1899     O1904   1.998       .  S
Zn1899     O1907   2.031       .  S
Zn1899     O1910   2.038   1_554  S
Zn1900     O1901   1.930       .  S
Zn1900     O1908   2.000       .  S
Zn1900     O1911   1.992       .  S
Zn1900     O1912   1.987       .  S
O1902      C1914   1.272       .  A
O1903      C1915   1.272       .  A
O1904      C1916   1.273       .  A
O1905      C1914   1.277       .  A
O1906      C1916   1.276       .  A
O1907      C1915   1.277       .  A
O1908      C1917   1.272       .  A
O1909      C1918   1.276       .  A
O1910      C1917   1.275       .  A
O1911      C1918   1.271       .  A
O1912      C1919   1.271       .  A
O1913      C1919   1.275       .  A
C1914      C2510   1.484       .  S
C1915      C2500   1.474       .  S
C1916      C2480   1.480       .  S
C1917      C2473   1.482       .  S
C1918      C2493   1.482       .  S
C1919      C2520   1.477       .  S
Zn1920     O1924   1.944       .  S
Zn1920     O1925   2.002       .  S
Zn1920     O1929   2.000       .  S
Zn1920     O1936   2.003       .  S
Zn1921     O1924   1.953       .  S
Zn1921     O1926   2.003       .  S
Zn1921     O1928   2.038       .  S
Zn1921     O1932   2.032       .  S
Zn1922     O1924   1.957       .  S
Zn1922     O1927   2.028       .  S
Zn1922     O1930   2.040       .  S
Zn1922     O1933   2.010       .  S
Zn1923     O1924   1.955       .  S
Zn1923     O1931   2.032       .  S
Zn1923     O1934   1.990       .  S
Zn1923     O1935   2.011       .  S
O1925      C1937   1.271       .  A
O1926      C1938   1.273       .  A
O1927      C1939   1.276       .  A
O1928      C1937   1.275       .  A
O1929      C1939   1.273       .  A
O1930      C1938   1.277       .  A
O1931      C1940   1.274       .  A
O1932      C1941   1.277       .  A
O1933      C1940   1.272       .  A
O1934      C1941   1.272       .  A
O1935      C1942   1.273       .  A
O1936      C1942   1.271       .  A
C1937      C2423   1.472       .  S
C1938      C2410   1.481       .  S
C1939      C2440   1.475       .  S
C1940      C2460   1.467       .  S
C1941      C2430   1.474       .  S
C1942      C2450   1.478       .  S
N1943      C1948   1.351       .  A
N1943      C1947   1.352       .  A
N1943      H1975   1.042       .  S
N1944      C1952   1.348       .  A
N1945      C1950   1.351       .  A
N1945      C1949   1.351       .  A
N1945      H1976   1.042       .  S
N1946      C1954   1.350       .  A
C1947      C1955   1.386       .  A
C1947      C1963   1.411       .  A
C1948      C1964   1.411       .  A
C1948      C1956   1.386       .  A
C1949      C1957   1.386       .  A
C1949      C1966   1.410       .  A
C1950      C1965   1.410       .  A
C1950      C1958   1.386       .  A
C1951      C1963   1.409       .  A
C1951      C1959   1.386       .  A
C1952      C1966   1.409       .  A
C1952      C1960   1.386       .  A
C1953      C1961   1.386       .  A
C1953      C1964   1.411       .  A
C1954      C1962   1.385       .  A
C1954      C1965   1.411       .  A
C1955      C1956   1.379       .  A
C1955      H1967   1.082       .  S
C1956      H1968   1.082       .  S
C1957      C1958   1.377       .  A
C1957      H1969   1.082       .  S
C1958      H1970   1.082       .  S
C1959      H1971   1.082       .  S
C1960      H1972   1.082       .  S
C1961      H1973   1.082       .  S
C1962      H1974   1.082       .  S
C1963      C2064   1.487       .  S
C1964      C2073   1.489       .  S
C1965      C2049   1.487       .  S
C1966      C2088   1.484       .  S
N1977      C1982   1.352       .  A
N1977      C1981   1.352       .  A
N1977      H2009   1.041       .  S
N1978      C1985   1.349       .  A
N1978      C1986   1.349       .  A
N1979      C1984   1.350       .  A
N1979      C1983   1.352       .  A
N1979      H2010   1.041       .  S
N1980      C1987   1.350       .  A
N1980      C1988   1.350       .  A
C1981      C1989   1.386       .  A
C1981      C1997   1.412       .  A
C1982      C1998   1.411       .  A
C1982      C1990   1.385       .  A
C1983      C1991   1.386       .  A
C1983      C2000   1.411       .  A
C1984      C1999   1.411       .  A
C1984      C1992   1.386       .  A
C1985      C1997   1.410       .  A
C1985      C1993   1.385       .  A
C1986      C2000   1.411       .  A
C1986      C1994   1.386       .  A
C1987      C1995   1.386       .  A
C1987      C1998   1.412       .  A
C1988      C1996   1.386       .  A
C1988      C1999   1.412       .  A
C1989      C1990   1.379       .  A
C1989      H2001   1.082       .  S
C1990      H2002   1.082       .  S
C1991      C1992   1.379       .  A
C1991      H2003   1.082       .  S
C1992      H2004   1.082       .  S
C1993      C1994   1.378       .  A
C1993      H2005   1.082       .  S
C1994      H2006   1.081       .  S
C1995      C1996   1.379       .  A
C1995      H2007   1.082       .  S
C1996      H2008   1.082       .  S
C1997      C2056   1.488       .  S
C1998      C2080   1.491       .  S
C1999      C2089   1.489       .  S
C2000      C2048   1.489       .  S
N2011      C2016   1.351       .  A
N2011      C2015   1.350       .  A
N2011      H2043   1.041       .  S
N2012      C2020   1.349       .  A
N2013      C2018   1.350       .  A
N2013      C2017   1.350       .  A
N2013      H2044   1.041       .  S
N2014      C2022   1.347       .  A
C2015      C2023   1.386       .  A
C2015      C2031   1.409       .  A
C2016      C2032   1.409       .  A
C2016      C2024   1.386       .  A
C2017      C2025   1.386       .  A
C2017      C2034   1.410       .  A
C2018      C2033   1.409       .  A
C2018      C2026   1.386       .  A
C2019      C2031   1.409       .  A
C2019      C2027   1.386       .  A
C2020      C2034   1.409       .  A
C2020      C2028   1.385       .  A
C2021      C2029   1.385       .  A
C2021      C2032   1.408       .  A
C2022      C2030   1.386       .  A
C2022      C2033   1.408       .  A
C2023      C2024   1.378       .  A
C2023      H2035   1.082       .  S
C2024      H2036   1.082       .  S
C2025      C2026   1.379       .  A
C2025      H2037   1.082       .  S
C2026      H2038   1.082       .  S
C2027      H2039   1.082       .  S
C2028      H2040   1.082       .  S
C2029      H2041   1.082       .  S
C2030      H2042   1.082       .  S
C2031      C2065   1.484       .  S
C2032      C2072   1.485       .  S
C2033      C2057   1.481       .  S
C2034      C2081   1.485       .  S
C2045      C2413   1.484       .  S
C2045      C2050   1.406       .  A
C2046      C2400   1.478       .  S
C2046      C2047   1.404       .  A
C2047      C2048   1.402       .  A
C2047      H2052   1.084       .  S
C2049      C2050   1.401       .  A
C2050      H2051   1.084       .  S
C2053      C2393   1.480       .  S
C2053      C2058   1.402       .  A
C2054      C2433   1.476       .  S
C2054      C2055   1.404       .  A
C2055      C2056   1.399       .  A
C2055      H2060   1.084       .  S
C2057      C2058   1.399       .  A
C2058      H2059   1.084       .  S
C2061      C2523   1.477       .  S
C2061      C2062   1.415       .  A
C2061      C2066   1.404       .  A
C2062      C2380   1.486       .  S
C2062      C2063   1.406       .  A
C2063      C2064   1.401       .  A
C2063      H2068   1.084       .  S
C2064      C2065   1.413       .  A
C2065      C2066   1.397       .  A
C2066      H2067   1.085       .  S
C2069      C2370   1.484       .  S
C2069      C2070   1.418       .  A
C2069      C2074   1.407       .  A
C2070      C2463   1.488       .  S
C2070      C2071   1.406       .  A
C2071      C2072   1.399       .  A
C2071      H2076   1.084       .  S
C2072      C2073   1.413       .  A
C2073      C2074   1.400       .  A
C2074      H2075   1.084       .  S
C2077      C2360   1.480       .  S
C2077      C2082   1.403       .  A
C2078      C2470   1.481       .  S
C2078      C2079   1.406       .  A
C2079      C2080   1.403       .  A
C2079      H2084   1.084       .  S
C2081      C2082   1.399       .  A
C2082      H2083   1.084       .  S
C2085      C2353   1.481       .  S
C2085      C2090   1.407       .  A
C2086      C2490   1.484       .  S
C2086      C2087   1.404       .  A
C2087      C2088   1.401       .  A
C2087      H2092   1.084       .  S
C2089      C2090   1.398       .  A
C2090      H2091   1.084       .  S
Zn2093     O2097   1.958       .  S
Zn2093     O2098   2.036       .  S
Zn2093     O2102   2.023       .  S
Zn2093     O2109   1.999       .  S
Zn2094     O2097   1.962       .  S
Zn2094     O2099   2.026       .  S
Zn2094     O2101   2.007       .  S
Zn2094     O2105   2.047       .  S
Zn2095     O2097   1.955       .  S
Zn2095     O2100   2.013       .  S
Zn2095     O2103   2.001       .  S
Zn2095     O2106   2.006       .  S
Zn2096     O2097   1.955       .  S
Zn2096     O2104   2.026       .  S
Zn2096     O2107   1.997       .  S
Zn2096     O2108   2.032       .  S
O2098      C2110   1.275       .  A
O2099      C2111   1.275       .  A
O2100      C2112   1.273       .  A
O2101      C2110   1.272       .  A
O2102      C2112   1.275       .  A
O2103      C2111   1.272       .  A
O2104      C2113   1.274       .  A
O2105      C2114   1.277       .  A
O2106      C2113   1.272       .  A
O2107      C2114   1.272       .  A
O2108      C2115   1.274       .  A
O2109      C2115   1.271       .  A
C2110      C2403   1.469       .  S
C2111      C2320   1.469       .  S
C2112      C2333   1.478       .  S
C2113      C2343   1.478       .  S
C2114      C2373   1.483       .  S
C2115      C2390   1.465       .  S
Zn2116     O2120   1.930       .  S
Zn2116     O2121   2.001       .  S
Zn2116     O2125   2.001       .  S
Zn2116     O2132   1.995       .  S
Zn2117     O2120   1.956   1_556  S
Zn2117     O2122   1.989       .  S
Zn2117     O2124   2.031   1_556  S
Zn2117     O2128   2.045       .  S
Zn2118     O2120   1.959   1_556  S
Zn2118     O2123   2.035   1_556  S
Zn2118     O2126   2.033       .  S
Zn2118     O2129   1.989       .  S
Zn2119     O2120   1.955   1_556  S
Zn2119     O2127   2.033       .  S
Zn2119     O2130   2.004       .  S
Zn2119     O2131   2.030   1_556  S
O2121      C2133   1.272       .  A
O2122      C2134   1.272       .  A
O2123      C2135   1.275       .  A
O2124      C2133   1.275       .  A
O2125      C2135   1.272       .  A
O2126      C2134   1.276       .  A
O2127      C2136   1.276       .  A
O2128      C2137   1.276       .  A
O2129      C2136   1.272       .  A
O2130      C2137   1.273       .  A
O2131      C2138   1.275       .  A
O2132      C2138   1.272       .  A
C2133      C2293   1.484       .  S
C2134      C2350   1.477       .  S
C2135      C2303   1.484       .  S
C2136      C2363   1.477       .  S
C2137      C2383   1.483       .  S
C2138      C2310   1.481       .  S
N2139      C2144   1.351       .  A
N2139      C2143   1.352       .  A
N2139      H2171   1.041       .  S
N2140      C2148   1.348   1_455  A
N2141      C2146   1.352       .  A
N2141      C2145   1.351       .  A
N2141      H2172   1.040       .  S
N2142      C2150   1.349   1_455  A
C2143      C2151   1.386       .  A
C2143      C2159   1.410       .  A
C2144      C2160   1.410       .  A
C2144      C2152   1.386       .  A
C2145      C2153   1.386       .  A
C2145      C2162   1.412       .  A
C2146      C2161   1.412       .  A
C2146      C2154   1.386       .  A
C2147      C2159   1.409       .  A
C2147      C2155   1.386       .  A
C2148      C2162   1.410       .  A
C2148      C2156   1.386       .  A
C2149      C2157   1.385       .  A
C2149      C2160   1.408       .  A
C2150      C2158   1.386       .  A
C2150      C2161   1.409       .  A
C2151      C2152   1.379       .  A
C2151      H2163   1.082       .  S
C2152      H2164   1.082       .  S
C2153      C2154   1.380       .  A
C2153      H2165   1.082       .  S
C2154      H2166   1.082       .  S
C2155      H2167   1.082       .  S
C2156      H2168   1.082       .  S
C2157      H2169   1.082       .  S
C2158      H2170   1.082       .  S
C2159      C2268   1.487       .  S
C2160      C2260   1.485       .  S
C2161      C2211   1.488       .  S
C2162      C2252   1.486       .  S
N2173      C2178   1.352       .  A
N2173      C2177   1.352       .  A
N2173      H2205   1.042       .  S
N2174      C2181   1.348       .  A
N2174      C2182   1.349       .  A
N2175      C2180   1.350       .  A
N2175      C2179   1.351       .  A
N2175      H2206   1.041       .  S
N2176      C2183   1.349       .  A
N2176      C2184   1.349       .  A
C2177      C2185   1.386       .  A
C2177      C2193   1.412       .  A
C2178      C2194   1.412       .  A
C2178      C2186   1.386       .  A
C2179      C2187   1.386       .  A
C2179      C2196   1.409       .  A
C2180      C2195   1.410       .  A
C2180      C2188   1.386       .  A
C2181      C2193   1.409       .  A
C2181      C2189   1.386       .  A
C2182      C2196   1.409       .  A
C2182      C2190   1.385       .  A
C2183      C2191   1.385       .  A
C2183      C2194   1.411       .  A
C2184      C2192   1.386       .  A
C2184      C2195   1.411       .  A
C2185      C2186   1.379       .  A
C2185      H2197   1.082       .  S
C2186      H2198   1.082       .  S
C2187      C2188   1.378       .  A
C2187      H2199   1.082       .  S
C2188      H2200   1.082       .  S
C2189      C2190   1.378       .  A
C2189      H2201   1.082       .  S
C2190      H2202   1.082       .  S
C2191      C2192   1.379       .  A
C2191      H2203   1.082       .  S
C2192      H2204   1.082       .  S
C2193      C2284   1.488       .  S
C2194      C2277   1.490       .  S
C2195      C2210   1.486       .  S
C2196      C2253   1.486       .  S
C2207      C2420   1.479       .  S
C2207      C2212   1.404       .  A
C2208      C2340   1.476       .  S
C2208      C2209   1.401       .  A
C2209      C2210   1.400       .  A
C2209      H2214   1.084       .  S
C2211      C2212   1.403       .  A
C2212      H2213   1.084       .  S
N2215      C2220   1.350       .  A
N2215      C2219   1.350       .  A
N2215      H2247   1.043       .  S
N2216      C2224   1.348       .  A
N2217      C2222   1.350       .  A
N2217      C2221   1.351       .  A
N2217      H2248   1.042       .  S
N2218      C2226   1.349   1_545  A
C2219      C2227   1.386       .  A
C2219      C2235   1.409       .  A
C2220      C2236   1.409       .  A
C2220      C2228   1.386       .  A
C2221      C2229   1.386       .  A
C2221      C2238   1.411       .  A
C2222      C2237   1.410       .  A
C2222      C2230   1.386       .  A
C2223      C2235   1.407       .  A
C2223      C2231   1.386       .  A
C2224      C2238   1.408       .  A
C2224      C2232   1.386       .  A
C2225      C2233   1.385       .  A
C2225      C2236   1.411       .  A
C2226      C2234   1.386       .  A
C2226      C2237   1.411       .  A
C2227      C2228   1.379       .  A
C2227      H2239   1.082       .  S
C2228      H2240   1.082       .  S
C2229      C2230   1.379       .  A
C2229      H2241   1.082       .  S
C2230      H2242   1.082       .  S
C2231      H2243   1.082       .  S
C2232      H2244   1.082       .  S
C2233      H2245   1.082       .  S
C2234      H2246   1.082       .  S
C2235      C2261   1.482       .  S
C2236      C2269   1.488       .  S
C2237      C2285   1.486       .  S
C2238      C2276   1.484       .  S
C2249      C2313   1.482       .  S
C2249      C2254   1.405       .  A
C2250      C2503   1.478       .  S
C2250      C2251   1.404       .  A
C2251      C2252   1.398       .  A
C2251      H2256   1.084       .  S
C2253      C2254   1.401       .  A
C2254      H2255   1.084       .  S
C2257      C2453   1.480       .  S
C2257      C2258   1.415       .  A
C2257      C2262   1.401       .  A
C2258      C2323   1.474       .  S
C2258      C2259   1.403       .  A
C2259      C2260   1.400       .  A
C2259      H2264   1.084       .  S
C2260      C2261   1.413       .  A
C2261      C2262   1.397       .  A
C2262      H2263   1.085       .  S
C2265      C2483   1.485       .  S
C2265      C2266   1.418       .  A
C2265      C2270   1.407       .  A
C2266      C2290   1.485       .  S
C2266      C2267   1.406       .  A
C2267      C2268   1.400       .  A
C2267      H2272   1.084       .  S
C2268      C2269   1.413       .  A
C2269      C2270   1.399       .  A
C2270      H2271   1.084       .  S
C2273      C2443   1.474       .  S
C2273      C2278   1.405       .  A
C2274      C2330   1.479       .  S
C2274      C2275   1.401       .  A
C2275      C2276   1.401       .  A
C2275      H2280   1.084       .  S
C2277      C2278   1.402       .  A
C2278      H2279   1.084       .  S
C2281      C2300   1.482       .  S
C2281      C2286   1.405       .  A
C2282      C2513   1.489       .  S
C2282      C2283   1.408       .  A
C2283      C2284   1.401       .  A
C2283      H2288   1.084       .  S
C2285      C2286   1.399       .  A
C2286      H2287   1.084       .  S
C2289      C2290   1.402       .  A
C2289      C2294   1.395       .  A
C2289      H2296   1.084       .  S
C2290      C2291   1.406       .  A
C2291      C2292   1.400       .  A
C2291      F2298   1.357       .  S
C2292      C2293   1.407       .  A
C2292      H2297   1.083       .  S
C2293      C2294   1.410       .  A
C2294      F2295   1.358       .  S
C2299      C2300   1.401       .  A
C2299      C2304   1.395       .  A
C2299      H2306   1.084       .  S
C2300      C2301   1.406       .  A
C2301      C2302   1.402       .  A
C2302      C2303   1.408       .  A
C2302      H2307   1.083       .  S
C2303      C2304   1.409       .  A
C2304      F2305   1.357       .  S
C2309      C2310   1.407       .  A
C2309      C2314   1.400       .  A
C2309      H2316   1.083       .  S
C2310      C2311   1.409       .  A
C2311      C2312   1.395       .  A
C2311      F2318   1.358       .  S
C2312      C2313   1.401       .  A
C2312      H2317   1.084       .  S
C2313      C2314   1.406       .  A
C2319      C2320   1.403       .  A
C2319      C2324   1.396       .  A
C2319      H2326   1.084       .  S
C2320      C2321   1.406       .  A
C2321      C2322   1.399       .  A
C2321      F2328   1.357       .  S
C2322      C2323   1.402       .  A
C2322      H2327   1.083       .  S
C2323      C2324   1.403       .  A
C2324      F2325   1.357       .  S
C2329      C2330   1.401       .  A
C2329      C2334   1.397       .  A
C2329      H2336   1.082       .  S
C2330      C2331   1.404       .  A
C2331      C2332   1.400       .  A
C2331      F2338   1.357       .  S
C2332      C2333   1.406       .  A
C2332      H2337   1.083       .  S
C2333      C2334   1.408       .  A
C2334      F2335   1.358       .  S
C2339      C2340   1.401       .  A
C2339      C2344   1.398       .  A
C2339      H2346   1.083       .  S
C2340      C2341   1.403       .  A
C2341      C2342   1.398       .  A
C2341      F2348   1.357       .  S
C2342      C2343   1.405       .  A
C2342      H2347   1.083       .  S
C2343      C2344   1.409       .  A
C2344      F2345   1.357       .  S
C2349      C2350   1.405       .  A
C2349      C2354   1.390       .  A
C2349      H2356   1.083       .  S
C2350      C2351   1.408       .  A
C2351      C2352   1.401       .  A
C2351      F2358   1.357       .  S
C2352      C2353   1.407       .  A
C2352      H2357   1.083       .  S
C2353      C2354   1.402       .  A
C2354      F2355   1.358       .  S
C2359      C2360   1.405       .  A
C2359      C2364   1.400       .  A
C2359      H2366   1.083       .  S
C2360      C2361   1.402       .  A
C2361      C2362   1.393       .  A
C2361      F2368   1.358       .  S
C2362      C2363   1.406       .  A
C2362      H2367   1.083       .  S
C2363      C2364   1.407       .  A
C2364      F2365   1.357       .  S
C2369      C2370   1.406       .  A
C2369      C2374   1.403       .  A
C2369      H2376   1.083       .  S
C2370      C2371   1.403       .  A
C2371      C2372   1.394       .  A
C2371      F2378   1.358       .  S
C2372      C2373   1.406       .  A
C2372      H2377   1.083       .  S
C2373      C2374   1.409       .  A
C2374      F2375   1.357       .  S
C2379      C2380   1.407       .  A
C2379      C2384   1.404       .  A
C2379      H2386   1.083       .  S
C2380      C2381   1.402       .  A
C2381      C2382   1.394       .  A
C2381      F2388   1.358       .  S
C2382      C2383   1.406       .  A
C2382      H2387   1.083       .  S
C2383      C2384   1.409       .  A
C2384      F2385   1.357       .  S
C2389      C2390   1.401       .  A
C2389      C2394   1.398       .  A
C2389      H2396   1.083       .  S
C2390      C2391   1.404       .  A
C2391      C2392   1.399       .  A
C2391      F2398   1.358       .  S
C2392      C2393   1.404       .  A
C2392      H2397   1.083       .  S
C2393      C2394   1.405       .  A
C2394      F2395   1.357       .  S
C2399      C2400   1.402       .  A
C2399      C2404   1.398       .  A
C2399      H2406   1.083       .  S
C2400      C2401   1.405       .  A
C2401      C2402   1.400       .  A
C2402      C2403   1.403       .  A
C2402      H2407   1.083       .  S
C2403      C2404   1.405       .  A
C2404      F2405   1.357       .  S
C2409      C2410   1.406       .  A
C2409      C2414   1.396       .  A
C2409      H2416   1.083       .  S
C2410      C2411   1.407       .  A
C2411      C2412   1.401       .  A
C2411      F2418   1.357       .  S
C2412      C2413   1.406       .  A
C2412      H2417   1.082       .  S
C2413      C2414   1.403       .  A
C2414      F2415   1.358       .  S
C2419      C2420   1.403       .  A
C2419      C2424   1.401       .  A
C2419      H2426   1.083       .  S
C2420      C2421   1.404       .  A
C2421      C2422   1.399       .  A
C2422      C2423   1.402       .  A
C2422      H2427   1.083       .  S
C2423      C2424   1.406       .  A
C2424      F2425   1.358       .  S
C2429      C2430   1.407       .  A
C2429      C2434   1.395       .  A
C2429      H2436   1.084       .  S
C2430      C2431   1.405       .  A
C2431      C2432   1.397       .  A
C2431      F2438   1.357       .  S
C2432      C2433   1.403       .  A
C2432      H2437   1.083       .  S
C2433      C2434   1.402       .  A
C2434      F2435   1.358       .  S
C2439      C2440   1.405       .  A
C2439      C2444   1.398       .  A
C2439      H2446   1.083       .  S
C2440      C2441   1.408       .  A
C2441      C2442   1.397       .  A
C2441      F2448   1.358       .  S
C2442      C2443   1.400       .  A
C2442      H2447   1.083       .  S
C2443      C2444   1.403       .  A
C2444      F2445   1.357       .  S
C2449      C2450   1.406       .  A
C2449      C2454   1.396       .  A
C2449      H2456   1.083       .  S
C2450      C2451   1.409       .  A
C2451      C2452   1.397       .  A
C2451      F2458   1.357       .  S
C2452      C2453   1.403       .  A
C2452      H2457   1.084       .  S
C2453      C2454   1.404       .  A
C2454      F2455   1.355       .  S
C2459      C2460   1.400       .  A
C2459      C2464   1.397       .  A
C2459      H2466   1.083       .  S
C2460      C2461   1.403       .  A
C2461      C2462   1.400       .  A
C2461      F2468   1.357       .  S
C2462      C2463   1.407       .  A
C2462      H2467   1.083       .  S
C2463      C2464   1.408       .  A
C2464      F2465   1.358       .  S
C2469      C2470   1.404       .  A
C2469      C2474   1.401       .  A
C2469      H2476   1.083       .  S
C2470      C2471   1.402       .  A
C2471      C2472   1.397       .  A
C2471      F2478   1.358       .  S
C2472      C2473   1.407       .  A
C2472      H2477   1.083       .  S
C2473      C2474   1.409       .  A
C2474      F2475   1.357       .  S
C2479      C2480   1.406       .  A
C2479      C2484   1.402       .  A
C2479      H2486   1.083       .  S
C2480      C2481   1.408       .  A
C2481      C2482   1.393       .  A
C2481      F2488   1.358       .  S
C2482      C2483   1.402       .  A
C2482      H2487   1.084       .  S
C2483      C2484   1.409       .  A
C2484      F2485   1.357       .  S
C2489      C2490   1.402       .  A
C2489      C2494   1.397       .  A
C2489      H2496   1.084       .  S
C2490      C2491   1.406       .  A
C2491      C2492   1.400       .  A
C2491      F2498   1.357       .  S
C2492      C2493   1.406       .  A
C2492      H2497   1.083       .  S
C2493      C2494   1.411       .  A
C2494      F2495   1.358       .  S
C2499      C2500   1.404       .  A
C2499      C2504   1.399       .  A
C2499      H2506   1.083       .  S
C2500      C2501   1.409       .  A
C2501      C2502   1.392       .  A
C2501      F2508   1.358       .  S
C2502      C2503   1.400       .  A
C2502      H2507   1.084       .  S
C2503      C2504   1.407       .  A
C2509      C2510   1.407       .  A
C2509      C2514   1.395       .  A
C2509      H2516   1.083       .  S
C2510      C2511   1.408       .  A
C2511      C2512   1.403       .  A
C2511      F2518   1.357       .  S
C2512      C2513   1.407       .  A
C2512      H2517   1.083       .  S
C2513      C2514   1.405       .  A
C2514      F2515   1.358       .  S
C2519      C2520   1.406       .  A
C2519      C2524   1.397       .  A
C2519      H2526   1.083       .  S
C2520      C2521   1.409       .  A
C2521      C2522   1.393       .  A
C2521      F2528   1.358       .  S
C2522      C2523   1.401       .  A
C2522      H2527   1.084       .  S
C2523      C2524   1.405       .  A
C2524      F2525   1.357       .  S
