geometry optimzed in LAMMPS
_audit_creation_date              2020-11-30 
_audit_creation_method            'lammps2cif' 
_symmetry_space_group_name_H-M    'P1' 
_symmetry_Int_Tables_number       1 
_symmetry_cell_setting            triclinic 
loop_ 
_symmetry_equiv_pos_as_xyz 
  x,y,z 
_cell_length_a                    31.7423994 
_cell_length_b                    31.783864428013235 
_cell_length_c                    32.938599223287184 
_cell_angle_alpha                 89.29683972899144 
_cell_angle_beta                  90.5975682760597 
_cell_angle_gamma                 119.9477467478788 
loop_ 
_atom_site_label 
_atom_site_type_symbol 
_atom_site_fract_x 
_atom_site_fract_y 
_atom_site_fract_z 
_atom_site_charge 
C1          C  0.23607851  0.20830341  0.15580341     0.81900
N2          N  0.23248635  0.21603033  0.11568930    -0.76400
C3          C  0.26610197  0.25816173  0.09773194     0.84400
N4          N  0.30315300  0.29322949  0.12032514    -0.76300
C5          C  0.30634893  0.28537441  0.16083732     0.84500
N6          N  0.27294263  0.24279762  0.17796573    -0.78000
C7          C  0.21530665  0.21320808  0.41066326     0.81900
N8          N  0.21960426  0.21604283  0.45170738    -0.76400
C9          C  0.26138377  0.25096685  0.46919559     0.84400
N10         N  0.29853247  0.28386370  0.44550452    -0.76300
C11         C  0.29392811  0.28128970  0.40428400     0.84500
N12         N  0.25259591  0.24561981  0.38730834    -0.78000
C13         C  0.25383926  0.46285602  0.15406300     0.81900
N14         N  0.24938342  0.46484096  0.11316824    -0.76400
C15         C  0.21471420  0.47351775  0.09711701     0.84400
N16         N  0.18425602  0.47969983  0.12198566    -0.76300
C17         C  0.18871287  0.47740861  0.16296896     0.84500
N18         N  0.22370678  0.46947436  0.17858043    -0.78000
C19         C  0.27136064  0.49589937  0.42002025     0.81900
N20         N  0.26480088  0.49367799  0.46086405    -0.76400
C21         C  0.22203085  0.48674857  0.47613410     0.84400
N22         N  0.18622442  0.48259512  0.45060095    -0.76300
C23         C  0.19306307  0.48530563  0.40977725     0.84500
N24         N  0.23535914  0.49149059  0.39484876    -0.78000
C25         C  0.47672549  0.25166993  0.14996712     0.81900
N26         N  0.47518691  0.24415432  0.10921118    -0.76400
C27         C  0.47841156  0.20569707  0.09490641     0.84400
N28         N  0.48240921  0.17469413  0.12150784    -0.76300
C29         C  0.48339628  0.18211449  0.16224045     0.84500
N30         N  0.48096917  0.22067511  0.17595825    -0.78000
C31         C  0.46744133  0.23920937  0.41692958     0.81900
N32         N  0.47467351  0.20846182  0.39376435    -0.76400
C33         C  0.47437411  0.16907794  0.41034364     0.84400
N34         N  0.46767115  0.16075160  0.45101628    -0.76300
C35         C  0.46074893  0.19162372  0.47465576     0.84500
N36         N  0.46004660  0.23054633  0.45750008    -0.78000
O37         O  0.03517472  0.36949749  0.32456426    -0.86500
C38         C  0.12616757  0.12169842  0.21754468     1.13600
O39         O  0.49782453  0.43622827  0.28647961    -1.34300
O40         O  0.14359308  0.08449055  0.31602352    -0.88000
O41         O  0.45918685  0.33642157  0.32946377    -0.88600
O42         O  0.44412496  0.42984698  0.37074650    -0.77400
O43         O  0.08769271  0.47793799  0.32441589    -0.99500
C44         C  0.48030817  0.06212407  0.36287315     1.23600
O45         O  0.44408296  0.48379968  0.28772265    -1.34400
Mn46       Mn  0.49660277  0.48830575  0.24439091     1.82100
O47         O  0.47922685  0.02323355  0.37207394    -0.76500
O48         O  0.10182234  0.12307639  0.32593939    -0.85900
C49         C  0.48748056  0.07507828  0.21352389     1.14700
C50         C  0.13727550  0.11608176  0.33367778     1.09400
O51         O  0.44885471  0.43982978  0.20040326    -0.77500
O52         O  0.04148899  0.02802346  0.27836565    -1.31200
O53         O  0.40369222  0.39031507  0.24536845    -0.96700
C54         C  0.34962862  0.47538379  0.34513599     1.08100
Mn55       Mn  0.04475285  0.09629460  0.28289555     1.48600
O56         O  0.34311057  0.43751044  0.32707020    -0.85900
Mn57       Mn  0.43440307  0.36611579  0.28386197     1.49600
O58         O  0.03977068  0.37760373  0.23539146    -0.89700
C59         C  0.07791511  0.47457328  0.36060346     1.21300
C60         C  0.50404578  0.35134391  0.22542322     1.13400
Mn61       Mn  0.49471053  0.48334082  0.33180026     1.81000
O62         O  0.48581671  0.08139382  0.25009779    -0.94900
Mn63       Mn  0.06032914  0.42693481  0.28300795     1.49300
C64         C  0.50042914  0.34461130  0.34279917     1.09900
Mn65       Mn  0.42941905  0.04607563  0.28703247     1.49900
C66         C  0.35426878  0.48592433  0.22914268     1.12800
O67         O  0.39980567  0.38559278  0.32228095    -1.00700
O68         O  0.09439479  0.12817088  0.23513286    -0.90400
C69         C  0.40685569  0.39226143  0.35891866     1.24100
O70         O  0.48237757  0.07272011  0.32694095    -1.01100
O71         O  0.13451652  0.08768979  0.22681521    -0.88500
O72         O  0.37718519  0.02598007  0.24103637    -0.88100
O73         O  0.46205000  0.34132537  0.23759881    -0.88100
Mn74       Mn  0.11015591  0.03348172  0.27067964     1.47900
O75         O  0.48886973  0.03851560  0.20205923    -0.76600
C76         C  0.41229795  0.40011716  0.20936594     1.17100
O77         O  0.03822449  0.47075666  0.37084161    -0.75300
O78         O  0.04681312  0.48736468  0.20060408    -0.74900
Mn79       Mn  0.37662495  0.41763757  0.28320920     1.51100
O80         O  0.37338353  0.01653475  0.33108440    -0.87300
O81         O  0.09154029  0.48447177  0.24749668    -0.94800
O82         O  0.34959293  0.44439823  0.23686303    -0.89800
C83         C  0.08438194  0.48685333  0.21121987     1.14900
C84         C  0.47764537  0.09396795  0.39401720    -0.14700
C85         C  0.48012969  0.13603556  0.38283735    -0.29900
H86         H  0.98825040  0.08074573  0.42308410     0.14300
H87         H  0.48530799  0.14668732  0.35097265     0.14900
C88         C  0.46683564  0.28090694  0.39713833    -0.14700
C89         C  0.50281662  0.30986963  0.37165501    -0.29900
H90         H  0.43572835  0.28592255  0.40141958     0.14300
H91         H  0.53494544  0.30600161  0.37017427     0.14900
C92         C  0.48713276  0.10887256  0.18261372    -0.14700
C93         C  0.48632399  0.14911313  0.19254675    -0.29900
H94         H  0.48676123  0.09984397  0.15081283     0.14300
H95         H  0.97995302  0.14804807  0.22345702     0.14900
C96         C  0.47506417  0.29331842  0.16743542    -0.14700
C97         C  0.50887833  0.32024889  0.19521456    -0.29900
H98         H  0.44381780  0.29793281  0.16162486     0.14300
H99         H  0.03529404  0.30832922  0.19149154     0.14900
C100        C  0.48392839  0.19665191  0.01520100    -0.11600
C101        C  0.48006943  0.19910628  0.05160367    -0.13100
C102        C  0.31111966  0.46878725  0.37340141    -0.14700
C103        C  0.31583772  0.50058979  0.40199821    -0.29900
H104        H  0.27550208  0.43706121  0.36844392     0.14300
H105        H  0.33662932  0.03141560  0.39908570     0.14900
C106        C  0.11250480  0.47580462  0.39158965    -0.14700
C107        C  0.15579504  0.48162162  0.38071425    -0.29900
H108        H  0.10282913  0.47300257  0.42336151     0.14300
H109        H  0.10682958  0.97603891  0.42539812     0.14900
C110        C  0.32171934  0.49104590  0.20004773    -0.14700
C111        C  0.29326356  0.45769731  0.17283929    -0.29900
H112        H  0.31866867  0.52349279  0.20313017     0.14300
H113        H  0.29655944  0.42594176  0.16690285     0.14900
C114        C  0.11794217  0.48692002  0.18047710    -0.14700
C115        C  0.15640834  0.48268398  0.19164940    -0.29900
H116        H  0.10975035  0.48819954  0.14858945     0.14300
H117        H  0.16373329  0.48095092  0.22370848     0.14900
C118        C  0.21288402  0.48224102  0.01734239    -0.11600
C119        C  0.21186780  0.47812825  0.05384701    -0.13100
C120        C  0.33208197  0.31643479  0.37668081    -0.14700
C121        C  0.37222124  0.35697650  0.38882407    -0.29900
H122        H  0.32555479  0.30927421  0.34445019     0.14300
H123        H  0.37916476  0.36499661  0.42088923     0.14900
C124        C  0.17131122  0.17465598  0.39079126    -0.16200
C125        C  0.17634125  0.14862136  0.36147993    -0.29900
H126        H  0.13578610  0.16887187  0.39897511     0.14300
H127        H  0.21207786  0.15305534  0.35621587     0.14900
C128        C  0.34349937  0.32189362  0.18827327    -0.14700
C129        C  0.37952311  0.36634208  0.17768319    -0.29900
H130        H  0.33997732  0.31112758  0.22014098     0.14300
H131        H  0.38466488  0.37799768  0.14604979     0.14900
C132        C  0.20013345  0.16356593  0.17623258    -0.14700
C133        C  0.15641367  0.15721694  0.18619639    -0.29900
H134        H  0.21309250  0.14088735  0.19006985     0.14300
H135        H  0.14577342  0.18295973  0.17517695     0.14900
C136        C  0.26200614  0.26426385  0.05460230    -0.11600
C137        C  0.25502684  0.26347862  0.01831324    -0.13100
C138        C  0.21909343  0.19637700  0.64983728     0.81900
N139        N  0.22511788  0.20128442  0.60896897    -0.76400
C140        C  0.26273594  0.24247907  0.59290093     0.84400
N141        N  0.29490550  0.27827868  0.61785049    -0.76300
C142        C  0.28907405  0.27289257  0.65884313     0.84500
N143        N  0.25096283  0.23228414  0.67436866    -0.78000
C144        C  0.19754207  0.21578056  0.91891027     0.81900
N145        N  0.20382117  0.22194550  0.95981630    -0.76400
C146        C  0.24634935  0.25882597  0.97499592     0.84400
N147        N  0.28216066  0.28935568  0.94921023    -0.76300
C148        C  0.27548710  0.28329807  0.90837447     0.84500
N149        N  0.23349403  0.24650748  0.89371827    -0.78000
C150        C  0.23743218  0.44477948  0.65539633     0.81900
N151        N  0.23803286  0.45308379  0.61493549    -0.76400
C152        C  0.20548419  0.46422356  0.59822264     0.84400
N153        N  0.17258980  0.46770393  0.62220834    -0.76300
C154        C  0.17245070  0.45971030  0.66298711     0.84500
N155        N  0.20506055  0.44857849  0.67917021    -0.78000
C156        C  0.26396969  0.49214718  0.91629162     0.81900
N157        N  0.25970613  0.49173707  0.95722397    -0.76400
C158        C  0.21809935  0.48592584  0.97394585     0.84400
N159        N  0.18094568  0.48112756  0.94965437    -0.76300
C160        C  0.18559951  0.48204781  0.90855620     0.84500
N161        N  0.22684346  0.48706573  0.89232189    -0.78000
C162        C  0.45312924  0.22512027  0.65683206     0.81900
N163        N  0.44912294  0.21943715  0.61599120    -0.76400
C164        C  0.45470217  0.18399392  0.59847392     0.84400
N165        N  0.46368722  0.15365583  0.62207246    -0.76300
C166        C  0.46716036  0.15915874  0.66321125     0.84500
N167        N  0.46235074  0.19516103  0.68004292    -0.78000
C168        C  0.50878009  0.24929157  0.91265270     0.81900
N169        N  0.50793864  0.21326863  0.89073625    -0.76400
C170        C  0.49859789  0.17081989  0.90841487     0.84400
N171        N  0.49037155  0.16450223  0.94932076    -0.76300
C172        C  0.49137108  0.20106413  0.97169324     0.84500
N173        N  0.50011305  0.24310530  0.95310684    -0.78000
O174        O  0.02522653  0.36339674  0.82845280    -0.86500
C175        C  0.11957559  0.12097284  0.72566278     1.13600
O176        O  0.48176550  0.41947701  0.78530429    -1.34300
O177        O  0.13317439  0.08734156  0.82406288    -0.88000
O178        O  0.44012286  0.32237028  0.83171022    -0.88600
O179        O  0.43091427  0.41887221  0.86908037    -0.77400
O180        O  0.07779974  0.47114152  0.82429876    -0.99500
C181        C  0.48842918  0.05534548  0.86059484     1.23600
O182        O  0.43095145  0.47011483  0.78478690    -1.34400
Mn183      Mn  0.48224146  0.47126954  0.74173060     1.82100
O184        O  0.48762540  0.01678864  0.87029334    -0.76500
O185        O  0.08640176  0.12054383  0.83397808    -0.85900
C186        C  0.48445427  0.05700223  0.71050470     1.14700
C187        C  0.12353673  0.11651138  0.84216745     1.09400
O188        O  0.43366717  0.42244728  0.69917341    -0.77500
O189        O  0.03311085  0.02586167  0.78348667    -1.31200
O190        O  0.38735835  0.37482659  0.74482172    -0.96700
C191        C  0.33780108  0.46653109  0.84098301     1.08100
Mn192      Mn  0.03379719  0.09307755  0.78705810     1.48600
O193        O  0.33018986  0.42760508  0.82429681    -0.85900
Mn194      Mn  0.41665338  0.35074487  0.78476077     1.49600
O195        O  0.02655879  0.36704253  0.73886478    -0.89700
C196        C  0.06929565  0.47022493  0.86053670     1.21300
C197        C  0.48315243  0.32804425  0.72998740     1.13400
Mn198      Mn  0.48128936  0.46921067  0.82891926     1.81000
O199        O  0.48624403  0.06537318  0.74691589    -0.94900
Mn200      Mn  0.04876868  0.41822682  0.78475506     1.49300
C201        C  0.48028321  0.33036225  0.84718287     1.09900
Mn202      Mn  0.43286287  0.03402441  0.78603882     1.49900
C203        C  0.34305395  0.47264482  0.72438576     1.12800
O204        O  0.38416361  0.37372429  0.82206802    -1.00700
O205        O  0.08794555  0.12748797  0.74336617    -0.90400
C206        C  0.39207941  0.38247127  0.85840561     1.24100
O207        O  0.48786213  0.06417301  0.82437265    -1.01100
O208        O  0.12682003  0.08581759  0.73380169    -0.88500
O209        O  0.37987466  0.01058848  0.74079238    -0.88100
O210        O  0.44186523  0.32153709  0.74055292    -0.88100
Mn211      Mn  0.10311388  0.03327078  0.78032502     1.47900
O212        O  0.48437199  0.01933691  0.69979551    -0.76600
C213        C  0.39645530  0.38371204  0.70874931     1.17100
O214        O  0.03070468  0.46864719  0.87071999    -0.75300
O215        O  0.03297550  0.47502498  0.70020860    -0.74900
Mn216      Mn  0.36228454  0.40500796  0.78165679     1.51100
O217        O  0.38050609  0.00880132  0.83169524    -0.87300
O218        O  0.07848118  0.47345598  0.74705732    -0.94800
O219        O  0.33657171  0.43107211  0.73452258    -0.89800
C220        C  0.07039164  0.47409386  0.71073034     1.14900
C221        C  0.49021922  0.08953136  0.89200766    -0.14700
C222        C  0.49617212  0.13301780  0.88102006    -0.29900
H223        H  0.97053771  0.07480202  0.92377971     0.14300
H224        H  0.49998125  0.14243359  0.84884307     0.14900
C225        C  0.51637044  0.29325583  0.89127679    -0.14700
C226        C  0.47786497  0.29747061  0.88023311    -0.29900
H227        H  0.55148868  0.31618253  0.87721572     0.14300
H228        H  0.44219362  0.27148850  0.89202474     0.14900
C229        C  0.47957700  0.08890668  0.67977169    -0.14700
C230        C  0.47594409  0.12742977  0.69109449    -0.29900
H231        H  0.47702364  0.07956908  0.64793743     0.14300
H232        H  0.97331985  0.14160153  0.72181159     0.14900
C233        C  0.45023836  0.26492261  0.67644462    -0.14700
C234        C  0.48603259  0.29400840  0.70187662    -0.29900
H235        H  0.41858585  0.26896170  0.67159250     0.14300
H236        H  0.02281672  0.29886839  0.69545053     0.14900
C237        C  0.45606531  0.18425639  0.51807147    -0.11600
C238        C  0.45429176  0.18135764  0.55475494    -0.13100
C239        C  0.30031130  0.46208324  0.86923874    -0.14700
C240        C  0.30703531  0.49523905  0.89712369    -0.29900
H241        H  0.26416980  0.43081053  0.86526762     0.14300
H242        H  0.33978674  0.04169381  0.87593814     0.14900
C243        C  0.10447457  0.47253567  0.89152081    -0.14700
C244        C  0.14728260  0.47751733  0.88026881    -0.29900
H245        H  0.09571720  0.47125720  0.92339935     0.14300
H246        H  0.16616843  0.00142021  0.84116547     0.14900
C247        C  0.31235485  0.47672163  0.69273264    -0.14700
C248        C  0.27533696  0.43822641  0.67490013    -0.29900
H249        H  0.31685677  0.51256215  0.68718763     0.14300
H250        H  0.26859575  0.40167300  0.68066265     0.14900
C251        C  0.10314916  0.47241696  0.67995737    -0.14700
C252        C  0.13913416  0.46413406  0.69120815    -0.29900
H253        H  0.09665196  0.47624509  0.64811661     0.14300
H254        H  0.14425139  0.45933956  0.72321104     0.14900
C255        C  0.21355060  0.48088246  0.51917762    -0.11600
C256        C  0.20771096  0.47389634  0.55531581    -0.13100
C257        C  0.31286339  0.31480243  0.87890826    -0.14700
C258        C  0.35666966  0.35139898  0.88943156    -0.29900
H259        H  0.30357080  0.30738814  0.84693449     0.14300
H260        H  0.36634266  0.35948796  0.92124848     0.14900
C261        C  0.15397691  0.17460968  0.90058184    -0.16200
C262        C  0.16071071  0.14970956  0.87109627    -0.29900
H263        H  0.11781817  0.16726994  0.90873087     0.14300
H264        H  0.19737537  0.15622904  0.86605154     0.14900
C265        C  0.32286420  0.30953439  0.68775224    -0.14700
C266        C  0.36394199  0.35008095  0.67725230    -0.29900
H267        H  0.31361584  0.30188446  0.71964775     0.14300
H268        H  0.37392541  0.35841977  0.64558441     0.14900
C269        C  0.17820127  0.15310193  0.66845766    -0.14700
C270        C  0.15189752  0.15913618  0.69702276    -0.29900
H271        H  0.17212609  0.11725456  0.66115106     0.14300
H272        H  0.15693547  0.19521327  0.70166534     0.14900
C273        C  0.26677268  0.24886397  0.54942913    -0.11600
C274        C  0.26630086  0.25175651  0.51279338    -0.13100
C275        C  0.23046448  0.70276898  0.15526279     0.81900
N276        N  0.23179482  0.70497552  0.11410321    -0.76400
C277        C  0.26558286  0.74607835  0.09484818     0.84400
N278        N  0.29874990  0.78485980  0.11681175    -0.76300
C279        C  0.29769771  0.78234885  0.15810491     0.84500
N280        N  0.26320866  0.74158458  0.17686149    -0.78000
C281        C  0.22333182  0.72576194  0.41479411     0.81900
N282        N  0.22230703  0.71364658  0.45473904    -0.76400
C283        C  0.25931565  0.74381817  0.47986975     0.84400
N284        N  0.29735221  0.78512266  0.46531498    -0.76300
C285        C  0.29896136  0.79719690  0.42581425     0.84500
N286        N  0.26156193  0.76768153  0.40067840    -0.78000
C287        C  0.24711145  0.96082312  0.14557805     0.81900
N288        N  0.24285618  0.95905036  0.10464107    -0.76400
C289        C  0.20696339  0.96395316  0.08639176     0.84400
N290        N  0.17475460  0.96999891  0.10908308    -0.76300
C291        C  0.17879232  0.97113326  0.15025335     0.84500
N292        N  0.21526034  0.96708350  0.16808678    -0.78000
C293        C  0.25907617  0.99293562  0.41776432     0.81900
N294        N  0.26298058  0.99481702  0.45898270    -0.76400
C295        C  0.22513334  0.98924118  0.48197715     0.84400
N296        N  0.18390219  0.98283436  0.46404166    -0.76300
C297        C  0.17953386  0.98153045  0.42323137     0.84500
N298        N  0.21712937  0.98617568  0.39991953    -0.78000
C299        C  0.45883483  0.73852095  0.15221622     0.81900
N300        N  0.45177491  0.72724838  0.11212453    -0.76400
C301        C  0.45480752  0.68862214  0.09826641     0.84400
N302        N  0.46422596  0.66103259  0.12470046    -0.76300
C303        C  0.47063439  0.67203860  0.16494680     0.84500
N304        N  0.46817899  0.71083658  0.17825703    -0.78000
C305        C  0.45626077  0.73377893  0.41299317     0.81900
N306        N  0.46812608  0.70548485  0.39089161    -0.76400
C307        C  0.47197751  0.66876803  0.40851653     0.84400
N308        N  0.46464037  0.66058989  0.44908152    -0.76300
C309        C  0.45300274  0.68879774  0.47170402     0.84500
N310        N  0.44836642  0.72519182  0.45360491    -0.78000
O311        O  0.03487561  0.86651547  0.31161733    -0.86500
C312        C  0.13457442  0.62705673  0.23497285     1.13600
O313        O  0.48634146  0.93164212  0.28136024    -1.34300
O314        O  0.13873311  0.58425858  0.33721829    -0.88000
O315        O  0.44410524  0.83108115  0.32417309    -0.88600
O316        O  0.42748725  0.92210322  0.36622702    -0.77400
O317        O  0.08942053  0.97600610  0.30743978    -0.99500
C318        C  0.49130946  0.56797313  0.36538026     1.23600
O319        O  0.43422114  0.98185806  0.28257481    -1.34400
Mn320      Mn  0.48767254  0.98579328  0.24009801     1.82100
O321        O  0.49196554  0.53020783  0.37541778    -0.76500
O322        O  0.09790711  0.62475871  0.33875004    -0.85900
C323        C  0.49144157  0.57460177  0.21621286     1.14700
C324        C  0.13090460  0.61640935  0.35210325     1.09400
O325        O  0.44089686  0.93885190  0.19407995    -0.77500
O326        O  0.04247687  0.52943665  0.28847310    -1.31200
O327        O  0.39489335  0.89033045  0.23866239    -0.96700
C328        C  0.33650643  0.97448102  0.33688787     1.08100
Mn329      Mn  0.04529380  0.59785140  0.29164741     1.48600
O330        O  0.33029333  0.93700686  0.31816814    -0.85900
Mn331      Mn  0.42304250  0.86266526  0.27699346     1.49600
O332        O  0.02867108  0.87228297  0.22156242    -0.89700
C333        C  0.08631159  0.97423293  0.34456417     1.21300
C334        C  0.49121905  0.84551713  0.22035093     1.13400
Mn335      Mn  0.48210454  0.97709864  0.32801788     1.81000
O336        O  0.49164731  0.58226683  0.25266979    -0.94900
Mn337      Mn  0.05503850  0.92185095  0.26815277     1.49300
C338        C  0.48496671  0.83761353  0.33698076     1.09900
Mn339      Mn  0.43775226  0.54723672  0.29153723     1.49900
C340        C  0.34745509  0.98808683  0.22177842     1.12800
O341        O  0.38811336  0.88477520  0.31336504    -1.00700
O342        O  0.10025417  0.63210803  0.24892075    -0.90400
C343        C  0.39016419  0.88758856  0.35035375     1.24100
O344        O  0.49216460  0.57689432  0.32930978    -1.01100
O345        O  0.14232078  0.59280674  0.24568209    -0.88500
O346        O  0.38392496  0.52441084  0.24751410    -0.88100
O347        O  0.44959685  0.83595351  0.23266611    -0.88100
Mn348      Mn  0.11235518  0.53539351  0.28869113     1.47900
O349        O  0.49478451  0.53892956  0.20523080    -0.76600
C350        C  0.40388702  0.89934663  0.20282679     1.17100
O351        O  0.04937907  0.97246152  0.36044049    -0.75300
O352        O  0.03570079  0.98232888  0.18838203    -0.74900
Mn353      Mn  0.36601908  0.91834143  0.27463717     1.51100
O354        O  0.38481811  0.51782521  0.33753398    -0.87300
O355        O  0.08235408  0.97924312  0.23234899    -0.94800
O356        O  0.34213701  0.94634969  0.22858617    -0.89800
C357        C  0.07328275  0.98061023  0.19664544     1.14900
C358        C  0.48581683  0.59925087  0.39530090    -0.14700
C359        C  0.48281341  0.63808401  0.38242873    -0.29900
H360        H  0.98055680  0.58156376  0.42648380     0.14300
H361        H  0.48673384  0.64728803  0.35021107     0.14900
C362        C  0.45283998  0.77372757  0.39220936    -0.14700
C363        C  0.48712656  0.80202396  0.36511921    -0.29900
H364        H  0.42225026  0.77907965  0.39824124     0.14300
H365        H  0.51906254  0.79797404  0.36240340     0.14900
C366        C  0.48555358  0.60520330  0.18515849    -0.14700
C367        C  0.47950661  0.64258156  0.19512804    -0.29900
H368        H  0.48478980  0.59580722  0.15345467     0.14300
H369        H  0.96820342  0.63894828  0.22533820     0.14900
C370        C  0.45707628  0.78054676  0.16845688    -0.14700
C371        C  0.49469272  0.81304134  0.19082102    -0.29900
H372        H  0.42334276  0.78145827  0.16636653     0.14300
H373        H  0.02045299  0.81184033  0.16770089     0.14900
C374        C  0.44917492  0.67501532  0.01871822    -0.11600
C375        C  0.45051108  0.67864412  0.05531273    -0.13100
C376        C  0.29663800  0.96806564  0.36440575    -0.14700
C377        C  0.30108470  0.00022190  0.39276596    -0.29900
H378        H  0.26152127  0.93520602  0.36078397     0.14300
H379        H  0.35113228  0.53122186  0.40976468     0.14900
C380        C  0.12757577  0.97497064  0.36564181    -0.14700
C381        C  0.13437366  0.97675869  0.40541289    -0.29900
H382        H  0.15564421  0.97580942  0.34592966     0.14300
H383        H  0.16497133  0.48455476  0.34877422     0.14900
C384        C  0.31507150  0.99293723  0.19244079    -0.14700
C385        C  0.28703457  0.95822095  0.16597780    -0.29900
H386        H  0.31121543  0.02494077  0.19489599     0.14300
H387        H  0.29163453  0.92701139  0.16104888     0.14900
C388        C  0.10551256  0.97893983  0.16523944    -0.14700
C389        C  0.14506923  0.97664406  0.17703318    -0.29900
H390        H  0.09628005  0.97806434  0.13326714     0.14300
H391        H  0.15319508  0.97752947  0.20930654     0.14900
C392        C  0.21088866  0.97290222  0.00691810    -0.11600
C393        C  0.20627680  0.96703757  0.04307885    -0.13100
C394        C  0.34259787  0.84072481  0.41038911    -0.14700
C395        C  0.34758133  0.84937054  0.37086949    -0.29900
H396        H  0.37171365  0.86400347  0.43114197     0.14300
H397        H  0.31825687  0.82483645  0.35047704     0.14900
C398        C  0.18375606  0.69452395  0.38616540    -0.16200
C399        C  0.16291529  0.64582652  0.38598779    -0.29900
H400        H  0.17585476  0.71242575  0.36132556     0.14300
H401        H  0.17493252  0.62812002  0.40792603     0.14900
C402        C  0.33229208  0.82243716  0.18418802    -0.14700
C403        C  0.37142755  0.86414701  0.17184412    -0.29900
H404        H  0.32514706  0.81598694  0.21657652     0.14300
H405        H  0.37990299  0.87168152  0.13977474     0.14900
C406        C  0.19264700  0.65969356  0.17702546    -0.14700
C407        C  0.16894903  0.66598304  0.20775514    -0.29900
H408        H  0.18419670  0.62354871  0.16800543     0.14300
H409        H  0.17518078  0.70227127  0.21356878     0.14900
C410        C  0.26392232  0.74918295  0.05129774    -0.11600
C411        C  0.25906221  0.74985262  0.01491724    -0.13100
C412        C  0.22598302  0.68364486  0.66083914     0.81900
N413        N  0.22798094  0.68673678  0.61994158    -0.76400
C414        C  0.26268841  0.72765445  0.60167797     0.84400
N415        N  0.29557670  0.76581882  0.62436210    -0.76300
C416        C  0.29346443  0.76238612  0.66563743     0.84500
N417        N  0.25833181  0.72142920  0.68349175    -0.78000
C418        C  0.20030394  0.71558735  0.91472666     0.81900
N419        N  0.20743972  0.71639827  0.95553015    -0.76400
C420        C  0.25123210  0.74917707  0.97175735     0.84400
N421        N  0.28788646  0.78067192  0.94713541    -0.76300
C422        C  0.28073408  0.77947961  0.90629639     0.84500
N423        N  0.23705269  0.74686969  0.89043280    -0.78000
C424        C  0.23822317  0.94390337  0.66299133     0.81900
N425        N  0.24565906  0.95742021  0.62339753    -0.76400
C426        C  0.21565409  0.97010281  0.60408074     0.84400
N427        N  0.17894853  0.97071499  0.62471632    -0.76300
C428        C  0.17223255  0.95785372  0.66472565     0.84500
N429        N  0.20176448  0.94426477  0.68339484    -0.78000
C430        C  0.27050347  0.00122667  0.90790175     0.81900
N431        N  0.26199267  0.99047319  0.94803576    -0.76400
C432        C  0.21954595  0.98270089  0.96441135     0.84400
N433        N  0.18541796  0.98461910  0.94062050    -0.76300
C434        C  0.19388852  0.99486085  0.90040879     0.84500
N435        N  0.23645859  0.00329574  0.88430516    -0.78000
C436        C  0.44620613  0.72347267  0.65314384     0.81900
N437        N  0.44311941  0.71780640  0.61235762    -0.76400
C438        C  0.44733302  0.68127015  0.59549528     0.84400
N439        N  0.45467824  0.65019212  0.61972883    -0.76300
C440        C  0.45735429  0.65595884  0.66089961     0.84500
N441        N  0.45338566  0.69271073  0.67698936    -0.78000
C442        C  0.45187887  0.72322230  0.91679291     0.81900
N443        N  0.45893853  0.69250210  0.89361891    -0.76400
C444        C  0.46137128  0.65470718  0.91031996     0.84400
N445        N  0.45741874  0.64787996  0.95142680    -0.76300
C446        C  0.45026617  0.67887948  0.97500261     0.84500
N447        N  0.44728403  0.71631519  0.95752970    -0.78000
O448        O  0.03269913  0.87119792  0.82724244    -0.86500
C449        C  0.12029064  0.61411750  0.73041669     1.13600
O450        O  0.48577383  0.91722303  0.78378666    -1.34300
O451        O  0.12780147  0.57749964  0.83235230    -0.88000
O452        O  0.44567158  0.81955237  0.82978640    -0.88600
O453        O  0.43735054  0.91713715  0.86968270    -0.77400
O454        O  0.08298048  0.97967704  0.81955901    -0.99500
C455        C  0.47984818  0.55537382  0.86140809     1.23600
O456        O  0.43575876  0.96850723  0.78498163    -1.34400
Mn457      Mn  0.48506326  0.96858974  0.74043962     1.82100
O458        O  0.48065740  0.51768450  0.87105069    -0.76500
O459        O  0.08591603  0.61692243  0.83536000    -0.85900
C460        C  0.47976269  0.55844358  0.71124086     1.14700
C461        C  0.11968721  0.60916625  0.84767788     1.09400
O462        O  0.43410280  0.91920677  0.69906689    -0.77500
O463        O  0.03117621  0.52152818  0.78636147    -1.31200
O464        O  0.38984975  0.87296357  0.74631772    -0.96700
C465        C  0.34722001  0.96788069  0.84475575     1.08100
Mn466      Mn  0.03350648  0.58976028  0.78824821     1.48600
O467        O  0.33886414  0.92752661  0.83042234    -0.85900
Mn468      Mn  0.42066364  0.84869019  0.78444104     1.49600
O469        O  0.03203542  0.87156648  0.73789819    -0.89700
C470        C  0.07569950  0.97914767  0.85592671     1.21300
C471        C  0.48438803  0.82772864  0.72486450     1.13400
Mn472      Mn  0.48667199  0.96733499  0.82792914     1.81000
O473        O  0.48056661  0.56707215  0.74760971    -0.94900
Mn474      Mn  0.05375002  0.92463670  0.78207770     1.49300
C475        C  0.48681188  0.82686790  0.84235432     1.09900
Mn476      Mn  0.42663104  0.53491576  0.78659999     1.49900
C477        C  0.34729240  0.97044195  0.72642602     1.12800
O478        O  0.39057388  0.87228376  0.82305068    -1.00700
O479        O  0.08769106  0.62158081  0.74473527    -0.90400
C480        C  0.39883508  0.88014621  0.85926980     1.24100
O481        O  0.48091009  0.56515476  0.82524957    -1.01100
O482        O  0.12759640  0.58009838  0.74218119    -0.88500
O483        O  0.37350753  0.51182245  0.74154946    -0.88100
O484        O  0.44382821  0.82014697  0.73845548    -0.88100
Mn485      Mn  0.10032309  0.52618234  0.78645561     1.47900
O486        O  0.48214435  0.52193238  0.70102501    -0.76600
C487        C  0.39725746  0.88072146  0.70994878     1.17100
O488        O  0.03607909  0.97420050  0.86730670    -0.75300
O489        O  0.03407078  0.97870441  0.69640940    -0.74900
Mn490      Mn  0.36693776  0.90367809  0.78486605     1.51100
O491        O  0.37342439  0.50824989  0.83222946    -0.87300
O492        O  0.07987346  0.97848646  0.74321496    -0.94800
O493        O  0.33884192  0.92924241  0.73968619    -0.89800
C494        C  0.07136139  0.97754779  0.70697056     1.14900
C495        C  0.47475133  0.58558006  0.89288800    -0.14700
C496        C  0.46853566  0.62299426  0.88213317    -0.29900
H497        H  0.97205757  0.57668599  0.92387976     0.14300
H498        H  0.46854151  0.63137814  0.85003983     0.14900
C499        C  0.45188637  0.76490010  0.89711886    -0.14700
C500        C  0.48873136  0.79329597  0.87231366    -0.29900
H501        H  0.42065137  0.76986832  0.90028357     0.14300
H502        H  0.52067752  0.78909519  0.87179969     0.14900
C503        C  0.47412306  0.58900899  0.67962446    -0.14700
C504        C  0.46484022  0.62427334  0.68983478    -0.29900
H505        H  0.47613598  0.58149609  0.64791842     0.14300
H506        H  0.97793329  0.64157043  0.72179987     0.14900
C507        C  0.44599713  0.76470620  0.67219349    -0.14700
C508        C  0.48516551  0.79543497  0.69384723    -0.29900
H509        H  0.41262303  0.76627988  0.67271337     0.14300
H510        H  0.02931913  0.80263522  0.69592010     0.14900
C511        C  0.44824201  0.68159161  0.51513459    -0.11600
C512        C  0.44682530  0.67823904  0.55180379    -0.13100
C513        C  0.31454927  0.96642594  0.87679726    -0.14700
C514        C  0.31398080  0.00639018  0.88842610    -0.29900
H515        H  0.28615109  0.93105614  0.88729539     0.14300
H516        H  0.34298525  0.52528441  0.90399207     0.14900
C517        C  0.11235383  0.98310603  0.88552903    -0.14700
C518        C  0.15683042  0.99415161  0.87312336    -0.29900
H519        H  0.10264174  0.97643793  0.91741776     0.14300
H520        H  0.15539354  0.47904120  0.84817817     0.14900
C521        C  0.31698587  0.97255432  0.69350980    -0.14700
C522        C  0.27270568  0.93509322  0.68573113    -0.29900
H523        H  0.32847909  0.00752160  0.67895885     0.14300
H524        H  0.25875425  0.90147486  0.70302423     0.14900
C525        C  0.10403460  0.97419109  0.67715417    -0.14700
C526        C  0.13606347  0.96098908  0.69004704    -0.29900
H527        H  0.10135777  0.98154861  0.64521539     0.14300
H528        H  0.13665361  0.95233993  0.72205363     0.14900
C529        C  0.22675892  0.98739253  0.52537958    -0.11600
C530        C  0.22247000  0.98157823  0.56160843    -0.13100
C531        C  0.31927976  0.81207789  0.87810977    -0.14700
C532        C  0.36335471  0.84771263  0.88980043    -0.29900
H533        H  0.31028266  0.80686005  0.84602023     0.14300
H534        H  0.37272413  0.85413206  0.92173019     0.14900
C535        C  0.15497809  0.67859794  0.89555355    -0.16200
C536        C  0.15390991  0.63941943  0.87976649    -0.29900
H537        H  0.12739945  0.68794736  0.88745999     0.14300
H538        H  0.18340901  0.63251045  0.88724415     0.14900
C539        C  0.32740018  0.80184829  0.69246060    -0.14700
C540        C  0.36428304  0.84476741  0.67988197    -0.29900
H541        H  0.32169612  0.79444513  0.72483454     0.14300
H542        H  0.37103948  0.85288284  0.64773096     0.14900
C543        C  0.18606517  0.64220720  0.68093889    -0.14700
C544        C  0.15318535  0.64891162  0.70043514    -0.29900
H545        H  0.18629030  0.60817007  0.68293400     0.14300
H546        H  0.15337990  0.68309071  0.69684908     0.14900
C547        C  0.26175778  0.73111147  0.55846690    -0.11600
C548        C  0.25869434  0.73387040  0.52226420    -0.13100
C549        C  0.72831005  0.20503662  0.15691584     0.81900
N550        N  0.72986049  0.20720822  0.11575607    -0.76400
C551        C  0.76537450  0.24720369  0.09649722     0.84400
N552        N  0.80023810  0.28480680  0.11848651    -0.76300
C553        C  0.79905327  0.28233387  0.15980073     0.84500
N554        N  0.76273495  0.24273809  0.17857905    -0.78000
C555        C  0.72082713  0.22991864  0.41186179     0.81900
N556        N  0.71573498  0.22052606  0.45258875    -0.76400
C557        C  0.75056873  0.25197982  0.47878019     0.84400
N558        N  0.79051987  0.29188127  0.46450209    -0.76300
C559        C  0.79646336  0.30102308  0.42427450     0.84500
N560        N  0.76127419  0.27024478  0.39799866    -0.78000
C561        C  0.75110062  0.46279888  0.15386018     0.81900
N562        N  0.74549021  0.46370296  0.11309586    -0.76400
C563        C  0.71155997  0.47356222  0.09738024     0.84400
N564        N  0.68270978  0.48187239  0.12254024    -0.76300
C565        C  0.68826600  0.48061548  0.16352494     0.84500
N566        N  0.72277777  0.47165305  0.17875305    -0.78000
C567        C  0.77018017  0.48885166  0.41939051     0.81900
N568        N  0.76455473  0.48734194  0.46039460    -0.76400
C569        C  0.72330625  0.48361047  0.47636259     0.84400
N570        N  0.68835397  0.48236891  0.45134516    -0.76300
C571        C  0.69433633  0.48453738  0.41042719     0.84500
N572        N  0.73489460  0.48722713  0.39481949    -0.78000
C573        C  0.96381035  0.23940089  0.14983274     0.81900
N574        N  0.95460335  0.22787900  0.10993481    -0.76400
C575        C  0.95337950  0.18719171  0.09588404     0.84400
N576        N  0.96058679  0.15780137  0.12191289    -0.76300
C577        C  0.96900253  0.16906310  0.16202738     0.84500
N578        N  0.97088713  0.20992195  0.17556393    -0.78000
C579        C  0.96672043  0.22955914  0.41067361     0.81900
N580        N  0.97854277  0.20094840  0.38901656    -0.76400
C581        C  0.98238820  0.16435684  0.40704824     0.84400
N582        N  0.97534713  0.15696915  0.44790376    -0.76300
C583        C  0.96400544  0.18604208  0.47003536     0.84500
N584        N  0.95915423  0.22180968  0.45122658    -0.78000
O585        O  0.54069327  0.37948543  0.33024687    -0.86500
C586        C  0.62916177  0.13039663  0.23495387     1.13600
O587        O  0.99417433  0.42855741  0.28255798    -1.34300
O588        O  0.63163392  0.08698497  0.33682192    -0.88000
O589        O  0.95374121  0.32735785  0.32358208    -0.88600
O590        O  0.93506804  0.41834684  0.36760771    -0.77400
O591        O  0.59273482  0.48781081  0.32665149    -0.99500
C592        C  0.99527108  0.06041074  0.35975985     1.23600
O593        O  0.94135536  0.47776435  0.28417407    -1.34400
Mn594      Mn  0.99463484  0.48227290  0.24137038     1.82100
O595        O  0.99667575  0.02251019  0.36836977    -0.76500
O596        O  0.59088241  0.12761855  0.33854665    -0.85900
C597        C  0.98394589  0.06709994  0.21056875     1.14700
C598        C  0.62398801  0.11932990  0.35173734     1.09400
O599        O  0.94749924  0.43520716  0.19541603    -0.77500
O600        O  0.53548557  0.03268603  0.28743498    -1.31200
O601        O  0.90206675  0.38650973  0.24009115    -0.96700
C602        C  0.84653959  0.46896664  0.34131558     1.08100
Mn603      Mn  0.53887516  0.10143717  0.29096128     1.48600
O604        O  0.83923274  0.43184626  0.32155375    -0.85900
Mn605      Mn  0.93149629  0.35924296  0.27759955     1.49600
O606        O  0.54333065  0.38467266  0.24057824    -0.89700
C607        C  0.58376176  0.48531355  0.36288205     1.21300
C608        C  0.00023718  0.34431041  0.22041750     1.13400
Mn609      Mn  0.98941570  0.47376605  0.32931048     1.81000
O610        O  0.98701060  0.07494978  0.24720859    -0.94900
Mn611      Mn  0.56447606  0.43530162  0.28681419     1.49300
C612        C  0.99477164  0.33449683  0.33654309     1.09900
Mn613      Mn  0.93594972  0.04112483  0.28866026     1.49900
C614        C  0.85325146  0.48372663  0.22564250     1.12800
O615        O  0.89610273  0.37954130  0.31496956    -1.00700
O616        O  0.59500922  0.13585290  0.24884752    -0.90400
C617        C  0.89886514  0.38220701  0.35201897     1.24100
O618        O  0.99330478  0.06939031  0.32388500    -1.01100
O619        O  0.63600050  0.09548684  0.24534504    -0.88500
O620        O  0.87879515  0.01949217  0.24767131    -0.88100
O621        O  0.95857681  0.33470432  0.23246971    -0.88100
Mn622      Mn  0.60506278  0.03790804  0.28799746     1.47900
O623        O  0.98527634  0.03089047  0.19815595    -0.76600
C624        C  0.91029217  0.39587443  0.20423301     1.17100
O625        O  0.54487870  0.48296645  0.37334345    -0.75300
O626        O  0.54807064  0.49270894  0.20317279    -0.74900
Mn627      Mn  0.87343138  0.41369806  0.27689072     1.51100
O628        O  0.88567747  0.01311430  0.33686300    -0.87300
O629        O  0.59429630  0.49149905  0.24962741    -0.94800
O630        O  0.84802682  0.44182597  0.23156827    -0.89800
C631        C  0.58595033  0.49251009  0.21337652     1.14900
C632        C  0.99257426  0.09210843  0.39145366    -0.14700
C633        C  0.99219806  0.13296926  0.38036947    -0.29900
H634        H  0.47257716  0.08250956  0.42565237     0.14300
H635        H  0.99686247  0.14334227  0.34844276     0.14900
C636        C  0.96252028  0.26882645  0.38972722    -0.14700
C637        C  0.99741822  0.29861271  0.36383725    -0.29900
H638        H  0.93111865  0.27300956  0.39521204     0.14300
H639        H  0.03011043  0.29579682  0.36164162     0.14900
C640        C  0.97796016  0.09858123  0.18073191    -0.14700
C641        C  0.97610160  0.13799540  0.19160508    -0.29900
H642        H  0.97447270  0.08857289  0.14889453     0.14300
H643        H  0.48675833  0.15792013  0.22443762     0.14900
C644        C  0.96577249  0.28304532  0.16624911    -0.14700
C645        C  0.00323338  0.31229756  0.19032792    -0.29900
H646        H  0.93423195  0.28760487  0.16290349     0.14300
H647        H  0.54090151  0.31621656  0.19837961     0.14900
C648        C  0.94673937  0.17437334  0.01648424    -0.11600
C649        C  0.94786558  0.17731179  0.05304536    -0.13100
C650        C  0.80792134  0.46214904  0.36972484    -0.14700
C651        C  0.81371901  0.49192300  0.40055588    -0.29900
H652        H  0.77160029  0.43226416  0.36317190     0.14300
H653        H  0.83237456  0.03795852  0.37782017     0.14900
C654        C  0.61768734  0.48443503  0.39348210    -0.14700
C655        C  0.65809250  0.48426472  0.38196897    -0.29900
H656        H  0.60949495  0.48398161  0.42540949     0.14300
H657        H  0.65871396  0.99209700  0.34530987     0.14900
C658        C  0.82108121  0.49022560  0.19729890    -0.14700
C659        C  0.78994372  0.45621233  0.17177212    -0.29900
H660        H  0.82012897  0.52382404  0.20001590     0.14300
H661        H  0.79083201  0.42300368  0.16651828     0.14900
C662        C  0.61846584  0.49139060  0.18212003    -0.14700
C663        C  0.65757943  0.48794554  0.19265414    -0.29900
H664        H  0.60877324  0.49082759  0.15040894     0.14300
H665        H  0.66637311  0.48794001  0.22457127     0.14900
C666        C  0.71060091  0.48108860  0.01755121    -0.11600
C667        C  0.70851588  0.47760899  0.05409010    -0.13100
C668        C  0.84201543  0.34308960  0.40956403    -0.14700
C669        C  0.85841289  0.34169201  0.37306806    -0.29900
H670        H  0.86248553  0.37461787  0.42889735     0.14300
H671        H  0.83715814  0.30922341  0.35453607     0.14900
C672        C  0.68275378  0.19813383  0.38210240    -0.16200
C673        C  0.65627003  0.14932855  0.38543193    -0.29900
H674        H  0.67954507  0.21524645  0.35442211     0.14300
H675        H  0.66295432  0.13113788  0.41067849     0.14900
C676        C  0.83582977  0.32108689  0.18583708    -0.14700
C677        C  0.87627638  0.36162523  0.17336226    -0.29900
H678        H  0.82901562  0.31473011  0.21825644     0.14300
H679        H  0.88431146  0.36918278  0.14124113     0.14900
C680        C  0.68927432  0.16259039  0.17847340    -0.14700
C681        C  0.66439752  0.16929588  0.20799441    -0.29900
H682        H  0.68103318  0.12626216  0.17028213     0.14300
H683        H  0.67061421  0.20569474  0.21312667     0.14900
C684        C  0.76427650  0.25016347  0.05285975    -0.11600
C685        C  0.75958865  0.24994637  0.01638294    -0.13100
C686        C  0.73253009  0.18393275  0.65848782     0.81900
N687        N  0.72610823  0.19110022  0.61885459    -0.76400
C688        C  0.75755808  0.23356239  0.60032494     0.84400
N689        N  0.79465933  0.26973848  0.62188831    -0.76300
C690        C  0.80049702  0.26250049  0.66195458     0.84500
N691        N  0.76952737  0.21947535  0.67974578    -0.78000
C692        C  0.70252572  0.20606148  0.91669667     0.81900
N693        N  0.70923118  0.21026183  0.95756498    -0.76400
C694        C  0.75146657  0.24685052  0.97313858     0.84400
N695        N  0.78661607  0.27930114  0.94779188    -0.76300
C696        C  0.77950814  0.27507684  0.90687842     0.84500
N697        N  0.73776712  0.23831720  0.89177317    -0.78000
C698        C  0.73509869  0.43872571  0.65590042     0.81900
N699        N  0.73755167  0.44928782  0.61574240    -0.76400
C700        C  0.70506533  0.46024476  0.59861531     0.84400
N701        N  0.67063709  0.46180620  0.62209493    -0.76300
C702        C  0.66880271  0.45171009  0.66267134     0.84500
N703        N  0.70107980  0.44028648  0.67906772    -0.78000
C704        C  0.76177114  0.48764554  0.91686112     0.81900
N705        N  0.75766436  0.48849111  0.95779998    -0.76400
C706        C  0.71623715  0.48367534  0.97419366     0.84400
N707        N  0.67937241  0.47886598  0.94962702    -0.76300
C708        C  0.68389627  0.47860674  0.90863498     0.84500
N709        N  0.72477188  0.48248549  0.89268005    -0.78000
C710        C  0.95600520  0.23236755  0.65010635     0.81900
N711        N  0.95297646  0.22515216  0.60931572    -0.76400
C712        C  0.95706149  0.18769982  0.59390048     0.84400
N713        N  0.96359881  0.15733045  0.61947506    -0.76300
C714        C  0.96609987  0.16450800  0.66034590     0.84500
N715        N  0.96267465  0.20211014  0.67511098    -0.78000
C716        C  0.95294693  0.22472676  0.91498662     0.81900
N717        N  0.96278769  0.19562410  0.89211979    -0.76400
C718        C  0.96534495  0.15789651  0.90895299     0.84400
N719        N  0.95902973  0.14976063  0.94976243    -0.76300
C720        C  0.94943868  0.17926293  0.97297351     0.84500
N721        N  0.94601262  0.21640338  0.95545212    -0.78000
O722        O  0.52158224  0.36351145  0.83457133    -0.86500
C723        C  0.62408007  0.10652831  0.72343247     1.13600
O724        O  0.98281236  0.42033483  0.78449642    -1.34300
O725        O  0.63661140  0.07427092  0.82561320    -0.88000
O726        O  0.94374629  0.32183089  0.82961164    -0.88600
O727        O  0.93085375  0.41735004  0.86874911    -0.77400
O728        O  0.57759848  0.47060746  0.82452430    -0.99500
C729        C  0.97925048  0.05567110  0.86080647     1.23600
O730        O  0.93021115  0.46908599  0.78465364    -1.34400
Mn731      Mn  0.98198877  0.47204916  0.74145478     1.82100
O732        O  0.98144064  0.01862506  0.87013722    -0.76500
O733        O  0.59548251  0.11429547  0.83052042    -0.85900
C734        C  0.97902057  0.06188132  0.71093192     1.14700
C735        C  0.62965433  0.10651850  0.84125030     1.09400
O736        O  0.93368004  0.42287158  0.69846211    -0.77500
O737        O  0.53671198  0.01815095  0.78392137    -1.31200
O738        O  0.88904053  0.37432772  0.74437664    -0.96700
C739        C  0.83598097  0.46316360  0.84063618     1.08100
Mn740      Mn  0.54136978  0.08733859  0.78515848     1.48600
O741        O  0.82956849  0.42426387  0.82463848    -0.85900
Mn742      Mn  0.91902523  0.35055752  0.78354408     1.49600
O743        O  0.52309488  0.36079503  0.74464233    -0.89700
C744        C  0.56971032  0.47093658  0.86071790     1.21300
C745        C  0.98671574  0.33339626  0.72480508     1.13400
Mn746      Mn  0.98075029  0.46885794  0.82887945     1.81000
O747        O  0.97912991  0.06970676  0.74742827    -0.94900
Mn748      Mn  0.54666877  0.41538658  0.78757534     1.49300
C749        C  0.98511694  0.32957157  0.84202307     1.09900
Mn750      Mn  0.92524827  0.03424579  0.78649927     1.49900
C751        C  0.84239235  0.46953880  0.72333844     1.12800
O752        O  0.88541881  0.37176035  0.82144500    -1.00700
O753        O  0.59307035  0.11562338  0.73897312    -0.90400
C754        C  0.89306341  0.37996994  0.85784115     1.24100
O755        O  0.97929022  0.06501719  0.82476287    -1.01100
O756        O  0.63143586  0.07272426  0.73576490    -0.88500
O757        O  0.87116233  0.00966537  0.74223452    -0.88100
O758        O  0.94526803  0.32371516  0.73801598    -0.88100
Mn759      Mn  0.60512043  0.02078142  0.78178747     1.47900
O760        O  0.98059096  0.02515990  0.69999098    -0.76600
C761        C  0.89787199  0.38299545  0.70824646     1.17100
O762        O  0.53107518  0.46916597  0.87089554    -0.75300
O763        O  0.53211243  0.47171924  0.70070328    -0.74900
Mn764      Mn  0.86257446  0.40293070  0.78155778     1.51100
O765        O  0.87319816  0.00518050  0.83274742    -0.87300
O766        O  0.57706794  0.46856782  0.74739395    -0.94800
O767        O  0.83603532  0.42839196  0.73474925    -0.89800
C768        C  0.56826015  0.46835291  0.71107638     1.14900
C769        C  0.97477696  0.08628600  0.89218408    -0.14700
C770        C  0.97409721  0.12683662  0.88133545    -0.29900
H771        H  0.48729945  0.07929628  0.92392616     0.14300
H772        H  0.97861858  0.13755000  0.84949097     0.14900
C773        C  0.95121913  0.26560652  0.89538336    -0.14700
C774        C  0.98785694  0.29557300  0.87107174    -0.29900
H775        H  0.91926113  0.26930405  0.89883019     0.14300
H776        H  0.02059783  0.29275265  0.87042106     0.14900
C777        C  0.97544000  0.09379591  0.67974465    -0.14700
C778        C  0.97225054  0.13274267  0.68993587    -0.29900
H779        H  0.97436514  0.08445779  0.64801872     0.14300
H780        H  0.47817871  0.13581527  0.72315860     0.14900
C781        C  0.95440127  0.27356295  0.66842338    -0.14700
C782        C  0.99018661  0.30184864  0.69429815    -0.29900
H783        H  0.92228098  0.27702701  0.66466873     0.14300
H784        H  0.51856116  0.29088244  0.70380527     0.14900
C785        C  0.95928371  0.18107046  0.51370937    -0.11600
C786        C  0.95713989  0.18200595  0.55039150    -0.13100
C787        C  0.79824374  0.45827402  0.86894810    -0.14700
C788        C  0.80490018  0.49051426  0.89778854    -0.29900
H789        H  0.76200760  0.42740445  0.86427617     0.14300
H790        H  0.84609304  0.02125132  0.90614849     0.14900
C791        C  0.60470042  0.47296286  0.89160545    -0.14700
C792        C  0.64585175  0.47431950  0.88029798    -0.29900
H793        H  0.59705438  0.47411712  0.92345437     0.14300
H794        H  0.66091982  0.97490916  0.84659278     0.14900
C795        C  0.81201170  0.47199492  0.69048946    -0.14700
C796        C  0.77276899  0.43247824  0.67612805    -0.29900
H797        H  0.81840225  0.50774762  0.68146044     0.14300
H798        H  0.76362677  0.39641012  0.68667902     0.14900
C799        C  0.59991262  0.46515289  0.67998837    -0.14700
C800        C  0.63484414  0.45519475  0.69085812    -0.29900
H801        H  0.59400058  0.47018414  0.64824752     0.14300
H802        H  0.63928006  0.44923919  0.72276572     0.14900
C803        C  0.71523673  0.47818281  0.51959597    -0.11600
C804        C  0.70864754  0.47105842  0.55573880    -0.13100
C805        C  0.81602602  0.30869764  0.87775103    -0.14700
C806        C  0.85854532  0.34702922  0.88862358    -0.29900
H807        H  0.80702797  0.30158145  0.84572267     0.14300
H808        H  0.86782013  0.35494639  0.92049859     0.14900
C809        C  0.65935533  0.16527121  0.89819695    -0.16200
C810        C  0.66637064  0.13865467  0.87069124    -0.29900
H811        H  0.62349597  0.16019703  0.90389846     0.14300
H812        H  0.70246044  0.14311410  0.86767441     0.14900
C813        C  0.83680257  0.30079734  0.68841931    -0.14700
C814        C  0.86686612  0.34711740  0.67730283    -0.29900
H815        H  0.83700722  0.29025865  0.71993090     0.14300
H816        H  0.86852734  0.35859046  0.64588728     0.14900
C817        C  0.69636390  0.14117700  0.68039058    -0.14700
C818        C  0.65433203  0.13850834  0.69050256    -0.29900
H819        H  0.70816857  0.11816634  0.69538653     0.14300
H820        H  0.64526182  0.16483537  0.67796816     0.14900
C821        C  0.75129063  0.23941661  0.55782993    -0.11600
C822        C  0.74742869  0.24304505  0.52169683    -0.13100
C823        C  0.72756299  0.69996038  0.15197675     0.81900
N824        N  0.72911321  0.70374343  0.11087819    -0.76400
C825        C  0.76444432  0.74485662  0.09268816     0.84400
N826        N  0.79834662  0.78198652  0.11568014    -0.76300
C827        C  0.79674763  0.77759299  0.15688221     0.84500
N828        N  0.76125863  0.73688916  0.17449131    -0.78000
C829        C  0.72958115  0.73653730  0.41169181     0.81900
N830        N  0.72366084  0.72605014  0.45216600    -0.76400
C831        C  0.75839681  0.75609556  0.47900062     0.84400
N832        N  0.79924512  0.79592199  0.46554332    -0.76300
C833        C  0.80589571  0.80599420  0.42534529     0.84500
N834        N  0.77071302  0.77649886  0.39859033    -0.78000
C835        C  0.74660256  0.96233711  0.15575073     0.81900
N836        N  0.74367917  0.96509937  0.11481633    -0.76400
C837        C  0.70996862  0.97443688  0.09774095     0.84400
N838        N  0.67850330  0.98029971  0.12174602    -0.76300
C839        C  0.68124733  0.97704908  0.16291091     0.84500
N840        N  0.71557887  0.96860319  0.17944249    -0.78000
C841        C  0.76406190  0.99203266  0.41059078     0.81900
N842        N  0.75652363  0.98222810  0.45108667    -0.76400
C843        C  0.71404769  0.97399453  0.46821018     0.84400
N844        N  0.67906728  0.97505757  0.44471605    -0.76300
C845        C  0.68650425  0.98462329  0.40425523     0.84500
N846        N  0.72908822  0.99339088  0.38760982    -0.78000
C847        C  0.94810802  0.72640077  0.15095904     0.81900
N848        N  0.94925836  0.72060273  0.11039505    -0.76400
C849        C  0.95713153  0.68526995  0.09599476     0.84400
N850        N  0.96493992  0.65640974  0.12236866    -0.76300
C851        C  0.96410016  0.66272440  0.16320843     0.84500
N852        N  0.95559128  0.69761502  0.17705426    -0.78000
C853        C  0.97318187  0.73732542  0.41017543     0.81900
N854        N  0.98145069  0.70586823  0.38899234    -0.76400
C855        C  0.98270810  0.66825178  0.40769621     0.84400
N856        N  0.97651052  0.66240371  0.44859603    -0.76300
C857        C  0.96863856  0.69397258  0.47039615     0.84500
N858        N  0.96633674  0.73106675  0.45106468    -0.78000
O859        O  0.52554515  0.87159261  0.32407991    -0.86500
C860        C  0.63332927  0.63176521  0.23299028     1.13600
O861        O  0.99138272  0.92643987  0.27484338    -1.34300
O862        O  0.64210752  0.59463546  0.33683726    -0.88000
O863        O  0.95403953  0.82790350  0.31907936    -0.88600
O864        O  0.94441255  0.92026034  0.36460075    -0.77400
O865        O  0.57930144  0.98019602  0.32320738    -0.99500
C866        C  0.98850724  0.55922392  0.36427016     1.23600
O867        O  0.94076007  0.97693570  0.28244801    -1.34400
Mn868      Mn  0.98870870  0.97968620  0.23485065     1.82100
O869        O  0.98667604  0.52006096  0.37383497    -0.76500
O870        O  0.60045469  0.63438161  0.33772409    -0.85900
C871        C  0.99154614  0.57004540  0.21485844     1.14700
C872        C  0.63392846  0.62683722  0.35113497     1.09400
O873        O  0.93738605  0.93244628  0.19301791    -0.77500
O874        O  0.54538806  0.53750299  0.28975662    -1.31200
O875        O  0.89477294  0.88340557  0.23934176    -0.96700
C876        C  0.85142662  0.97094649  0.34678094     1.08100
Mn877      Mn  0.54672645  0.60522414  0.29174165     1.48600
O878        O  0.84366366  0.93250901  0.32878558    -0.85900
Mn879      Mn  0.92708830  0.85796784  0.27520973     1.49600
O880        O  0.53080892  0.87950536  0.23465751    -0.89700
C881        C  0.57023100  0.97674437  0.35943930     1.21300
C882        C  0.98724622  0.83860613  0.21071438     1.13400
Mn883      Mn  0.99426146  0.97425274  0.32309242     1.81000
O884        O  0.99115398  0.57712286  0.25145950    -0.94900
Mn885      Mn  0.55183532  0.92904920  0.28214264     1.49300
C886        C  0.99590833  0.83410024  0.32817119     1.09900
Mn887      Mn  0.93634928  0.54157751  0.28963416     1.49900
C888        C  0.84636693  0.98098304  0.23094907     1.12800
O889        O  0.89987465  0.88192494  0.31479017    -1.00700
O890        O  0.59989889  0.63781027  0.24752795    -0.90400
C891        C  0.90630867  0.88442871  0.35110788     1.24100
O892        O  0.99001636  0.56877333  0.32823719    -1.01100
O893        O  0.64239666  0.59886233  0.24498639    -0.88500
O894        O  0.88313889  0.52115283  0.24513537    -0.88100
O895        O  0.94795436  0.82960873  0.22786544    -0.88100
Mn896      Mn  0.61533808  0.54387692  0.28957241     1.47900
O897        O  0.99497931  0.53460037  0.20344241    -0.76600
C898        C  0.90139245  0.89309536  0.20316698     1.17100
O899        O  0.53078682  0.97336463  0.37006903    -0.75300
O900        O  0.54013500  0.99038730  0.19954147    -0.74900
Mn901      Mn  0.87226952  0.91231590  0.28034959     1.51100
O902        O  0.88265305  0.51126529  0.33508645    -0.87300
O903        O  0.58416635  0.98672478  0.24665944    -0.94800
O904        O  0.84114809  0.93911608  0.23786985    -0.89800
C905        C  0.57732713  0.98913343  0.21030545     1.14900
C906        C  0.98632983  0.59226529  0.39459981    -0.14700
C907        C  0.98937952  0.63425147  0.38207803    -0.29900
H908        H  0.48195336  0.58927256  0.42729934     0.14300
H909        H  0.99516544  0.64391550  0.34994632     0.14900
C910        C  0.97037333  0.77689830  0.38796913    -0.14700
C911        C  0.00027430  0.79983438  0.35649942    -0.29900
H912        H  0.94332171  0.78643698  0.39677611     0.14300
H913        H  0.02958923  0.79243843  0.35050812     0.14900
C914        C  0.98596578  0.60082340  0.18384420    -0.14700
C915        C  0.97291663  0.63341962  0.19354512    -0.29900
H916        H  0.99032711  0.59471026  0.15213659     0.14300
H917        H  0.48054462  0.65186300  0.22691290     0.14900
C918        C  0.94462966  0.76684798  0.16753001    -0.14700
C919        C  0.98587959  0.80663786  0.17843786    -0.29900
H920        H  0.90979622  0.75960008  0.17929641     0.14300
H921        H  0.52853328  0.81217569  0.19073695     0.14900
C922        C  0.95989579  0.68087297  0.01606660    -0.11600
C923        C  0.95863680  0.68015387  0.05274147    -0.13100
C924        C  0.81661815  0.96531819  0.37915944    -0.14700
C925        C  0.80971613  0.00189142  0.39067486    -0.29900
H926        H  0.79091926  0.92860737  0.38934812     0.14300
H927        H  0.84969768  0.52022339  0.40982943     0.14900
C928        C  0.60529261  0.97661789  0.38942344    -0.14700
C929        C  0.64922635  0.98492048  0.37727499    -0.29900
H930        H  0.59523438  0.96999197  0.42126181     0.14300
H931        H  0.66566122  0.48467931  0.34987187     0.14900
C932        C  0.81138697  0.98632342  0.20498879    -0.14700
C933        C  0.78508412  0.95600156  0.17515443    -0.29900
H934        H  0.80637526  0.01703633  0.21146553     0.14300
H935        H  0.79163068  0.92723918  0.16543458     0.14900
C936        C  0.61082287  0.98835020  0.17966779    -0.14700
C937        C  0.64813699  0.98215509  0.19105386    -0.29900
H938        H  0.60364189  0.99087862  0.14774154     0.14300
H939        H  0.65425596  0.97912825  0.22317021     0.14900
C940        C  0.71335204  0.98356948  0.01775934    -0.11600
C941        C  0.70946257  0.97977741  0.05427766    -0.13100
C942        C  0.85182795  0.84766256  0.41056766    -0.14700
C943        C  0.86974181  0.84368733  0.37522981    -0.29900
H944        H  0.86949813  0.88128591  0.42750242     0.14300
H945        H  0.85083834  0.80922911  0.35940865     0.14900
C946        C  0.69206615  0.70563338  0.38145324    -0.16200
C947        C  0.66557291  0.65696624  0.38480443    -0.29900
H948        H  0.68948457  0.72297614  0.35364393     0.14300
H949        H  0.67185390  0.63880119  0.41030298     0.14900
C950        C  0.83153262  0.81555127  0.18417714    -0.14700
C951        C  0.86820845  0.85881753  0.17238413    -0.29900
H952        H  0.82633580  0.80674617  0.21635014     0.14300
H953        H  0.87439342  0.86852557  0.14045939     0.14900
C954        C  0.68791183  0.65847416  0.17328613    -0.14700
C955        C  0.66523468  0.66774274  0.20303314    -0.29900
H956        H  0.67954862  0.62169556  0.16666362     0.14300
H957        H  0.67200471  0.70459285  0.20674996     0.14900
C958        C  0.76379415  0.74987367  0.04924566    -0.11600
C959        C  0.75969198  0.75176435  0.01287057    -0.13100
C960        C  0.72860392  0.68690027  0.65993667     0.81900
N961        N  0.72468947  0.69297650  0.61954370    -0.76400
C962        C  0.75784713  0.73471147  0.60089555     0.84400
N963        N  0.79432482  0.77088330  0.62282772    -0.76300
C964        C  0.79783619  0.76477911  0.66344813     0.84500
N965        N  0.76501481  0.72269148  0.68159383    -0.78000
C966        C  0.70129276  0.71522797  0.91289405     0.81900
N967        N  0.70839725  0.71713044  0.95369577    -0.76400
C968        C  0.75175980  0.75102549  0.96972789     0.84400
N969        N  0.78798782  0.78285437  0.94488693    -0.76300
C970        C  0.78075076  0.78073781  0.90399058     0.84500
N971        N  0.73759334  0.74672709  0.88834945    -0.78000
C972        C  0.74016660  0.94185410  0.64904796     0.81900
N973        N  0.73699588  0.94460116  0.60812529    -0.76400
C974        C  0.70181046  0.95187092  0.59121277     0.84400
N975        N  0.66947966  0.95620006  0.61549919    -0.76300
C976        C  0.67267664  0.95305283  0.65669618     0.84500
N977        N  0.70827295  0.94642359  0.67287896    -0.78000
C978        C  0.76722403  0.98870041  0.91845166     0.81900
N979        N  0.76213561  0.99011832  0.95924186    -0.76400
C980        C  0.72036447  0.98579387  0.97447352     0.84400
N981        N  0.68417307  0.98062967  0.94884050    -0.76300
C982        C  0.68980695  0.97979849  0.90800694     0.84500
N983        N  0.73101819  0.98346541  0.89330281    -0.78000
C984        C  0.96189982  0.73412119  0.65189728     0.81900
N985        N  0.95901720  0.72798839  0.61109972    -0.76400
C986        C  0.96287781  0.69097999  0.59470559     0.84400
N987        N  0.96883924  0.65944472  0.61949230    -0.76300
C988        C  0.97118281  0.66550242  0.66062836     0.84500
N989        N  0.96818255  0.70307825  0.67623146    -0.78000
C990        C  0.96446041  0.73172096  0.91449855     0.81900
N991        N  0.97097633  0.70063754  0.89113046    -0.76400
C992        C  0.97244159  0.66219376  0.90787217     0.84400
N993        N  0.96835698  0.65529940  0.94882592    -0.76300
C994        C  0.96230892  0.68665637  0.97255813     0.84500
N995        N  0.95972587  0.72447804  0.95530681    -0.78000
O996        O  0.52713934  0.85978693  0.82831456    -0.86500
C997        C  0.62003634  0.60986463  0.72611268     1.13600
O998        O  0.98681057  0.92445215  0.78207770    -1.34300
O999        O  0.63084946  0.57765541  0.82851369    -0.88000
O1000       O  0.95119320  0.82685499  0.82825715    -0.88600
O1001       O  0.93580154  0.91984803  0.86725728    -0.77400
O1002       O  0.58296454  0.96722209  0.82141521    -0.99500
C1003       C  0.97763998  0.55428906  0.86138487     1.23600
O1004       O  0.93228647  0.97112659  0.78350022    -1.34400
Mn1005     Mn  0.98363061  0.97518720  0.73919706     1.82100
O1006       O  0.97851615  0.51665020  0.87142527    -0.76500
O1007       O  0.58910349  0.61712635  0.83249547    -0.85900
C1008       C  0.98010902  0.55991995  0.71163760     1.14700
C1009       C  0.62351705  0.60988689  0.84369454     1.09400
O1010       O  0.93490648  0.92483614  0.69673631    -0.77500
O1011       O  0.53207587  0.52068294  0.78587315    -1.31200
O1012       O  0.89240061  0.87652587  0.74346344    -0.96700
C1013       C  0.83922285  0.96285980  0.84214123     1.08100
Mn1014     Mn  0.53543098  0.58933667  0.78667457     1.48600
O1015       O  0.83222327  0.92452737  0.82465599    -0.85900
Mn1016     Mn  0.92418939  0.85403728  0.78226950     1.49600
O1017       O  0.52520436  0.86008617  0.73847920    -0.89700
C1018       C  0.57507270  0.96774300  0.85772533     1.21300
C1019       C  0.99240178  0.83712668  0.72434681     1.13400
Mn1020     Mn  0.98433136  0.97220229  0.82674613     1.81000
O1021       O  0.97968382  0.56761654  0.74806471    -0.94900
Mn1022     Mn  0.55065864  0.91293758  0.78310090     1.49300
C1023       C  0.99314266  0.83617343  0.84076009     1.09900
Mn1024     Mn  0.92461946  0.53316290  0.78605841     1.49900
C1025       C  0.84140876  0.97030531  0.72487350     1.12800
O1026       O  0.89009282  0.87457206  0.82006701    -1.00700
O1027       O  0.58831763  0.61829585  0.74125856    -0.90400
C1028       C  0.89770216  0.88266810  0.85640917     1.24100
O1029       O  0.97815812  0.56327275  0.82524386    -1.01100
O1030       O  0.62747112  0.57600138  0.73842606    -0.88500
O1031       O  0.87251395  0.50938481  0.73989605    -0.88100
O1032       O  0.95078542  0.82757452  0.73697093    -0.88100
Mn1033     Mn  0.60064943  0.52386283  0.78478459     1.47900
O1034       O  0.98112682  0.52274481  0.70123629    -0.76600
C1035       C  0.89986461  0.88469824  0.70720929     1.17100
O1036       O  0.53693728  0.96673913  0.86821401    -0.75300
O1037       O  0.53355899  0.96836085  0.69802479    -0.74900
Mn1038     Mn  0.86532151  0.90439331  0.78066707     1.51100
O1039       O  0.87050485  0.50521591  0.83105798    -0.87300
O1040       O  0.58029795  0.96646879  0.74365630    -0.94800
O1041       O  0.83695176  0.92918613  0.73400626    -0.89800
C1042       C  0.57073016  0.96633154  0.70748669     1.14900
C1043       C  0.97561349  0.58699233  0.89202785    -0.14700
C1044       C  0.97720659  0.62850736  0.88035001    -0.29900
H1045       H  0.47466796  0.57622415  0.92470260     0.14300
H1046       H  0.98087141  0.63808291  0.84829503     0.14900
C1047       C  0.96177986  0.77231160  0.89483976    -0.14700
C1048       C  0.99734908  0.80254550  0.86966457    -0.29900
H1049       H  0.92955257  0.77543584  0.89894779     0.14300
H1050       H  0.03041827  0.80034828  0.86822705     0.14900
C1051       C  0.97775728  0.59247341  0.68002257    -0.14700
C1052       C  0.97634251  0.63256501  0.68994830    -0.29900
H1053       H  0.97614927  0.58275971  0.64838695     0.14300
H1054       H  0.46273827  0.63090374  0.72178522     0.14900
C1055       C  0.95967848  0.77468496  0.67056105    -0.14700
C1056       C  0.99612217  0.80462154  0.69508258    -0.29900
H1057       H  0.92700737  0.77725433  0.66725197     0.14300
H1058       H  0.51840449  0.79371046  0.69129955     0.14900
C1059       C  0.96443016  0.68903681  0.51414641    -0.11600
C1060       C  0.96282699  0.68730387  0.55094585    -0.13100
C1061       C  0.80298929  0.95718356  0.87231119    -0.14700
C1062       C  0.81019982  0.99052827  0.90029256    -0.29900
H1063       H  0.76695112  0.92556497  0.86904554     0.14300
H1064       H  0.84095382  0.51993097  0.90539745     0.14900
C1065       C  0.60998620  0.97061793  0.88892283    -0.14700
C1066       C  0.65248056  0.97468171  0.87853391    -0.29900
H1067       H  0.60113341  0.97060967  0.92069468     0.14300
H1068       H  0.65288060  0.47330210  0.84825553     0.14900
C1069       C  0.80839498  0.97366808  0.69508794    -0.14700
C1070       C  0.78043787  0.93889633  0.66863811    -0.29900
H1071       H  0.80447129  0.00570881  0.69695226     0.14300
H1072       H  0.78456121  0.90737030  0.66408290     0.14900
C1073       C  0.60191271  0.96344053  0.67554863    -0.14700
C1074       C  0.63984777  0.95770397  0.68560253    -0.29900
H1075       H  0.59310308  0.96505037  0.64387636     0.14300
H1076       H  0.64748325  0.95565793  0.71754997     0.14900
C1077       C  0.70626745  0.96483739  0.51133790    -0.11600
C1078       C  0.70161085  0.95817383  0.54770684    -0.13100
C1079       C  0.81869948  0.81365370  0.87546423    -0.14700
C1080       C  0.86243864  0.84994358  0.88692026    -0.29900
H1081       H  0.80963583  0.80801122  0.84341171     0.14300
H1082       H  0.87178412  0.85671960  0.91882662     0.14900
C1083       C  0.65677026  0.67657128  0.89415063    -0.16200
C1084       C  0.65962986  0.64185153  0.87380492    -0.29900
H1085       H  0.62461482  0.68025139  0.89233517     0.14300
H1086       H  0.69256177  0.63950859  0.87673991     0.14900
C1087       C  0.83456730  0.80324548  0.68955583    -0.14700
C1088       C  0.86756269  0.84826239  0.67709552    -0.29900
H1089       H  0.83305579  0.79397923  0.72157611     0.14300
H1090       H  0.87047940  0.85834561  0.64521575     0.14900
C1091       C  0.69165092  0.64403461  0.68156842    -0.14700
C1092       C  0.65094143  0.64292471  0.69375037    -0.29900
H1093       H  0.70196535  0.61870307  0.69412354     0.14300
H1094       H  0.64321681  0.67086731  0.68300650     0.14900
C1095       C  0.75429489  0.74033147  0.55793321    -0.11600
C1096       C  0.75344036  0.74568462  0.52171314    -0.13100
loop_ 
_geom_bond_atom_site_label_1 
_geom_bond_atom_site_label_2 
_geom_bond_distance 
_geom_bond_site_symmetry_2 
_ccdc_geom_bond_type 
C1            N2   1.355       .  A
C1            N6   1.351       .  A
C1          C132   1.466       .  S
N2            C3   1.360       .  A
C3            N4   1.368       .  A
C3          C136   1.445       .  S
N4            C5   1.367       .  A
C5            N6   1.355       .  A
C5          C128   1.480       .  S
C7            N8   1.357       .  A
C7           N12   1.355       .  A
C7          C124   1.474       .  S
N8            C9   1.361       .  A
C9           N10   1.364       .  A
C9          C274   1.442       .  S
N10          C11   1.363       .  A
C11          N12   1.354       .  A
C11         C120   1.479       .  S
C13          N14   1.357       .  A
C13          N18   1.354       .  A
C13         C111   1.470       .  S
N14          C15   1.362       .  A
C15          N16   1.362       .  A
C15         C119   1.437       .  S
N16          C17   1.361       .  A
C17          N18   1.351       .  A
C17         C115   1.472       .  S
C19          N20   1.359       .  A
C19          N24   1.355       .  A
C19         C103   1.474       .  S
N20          C21   1.363       .  A
C21          N22   1.360       .  A
C21         C255   1.438       .  S
N22          C23   1.359       .  A
C23          N24   1.353       .  A
C23         C107   1.473       .  S
C25          N26   1.363       .  A
C25          N30   1.353       .  A
C25          C96   1.475       .  S
N26          C27   1.366       .  A
C27          N28   1.362       .  A
C27         C101   1.449       .  S
N28          C29   1.362       .  A
C29          N30   1.349       .  A
C29          C93   1.475       .  S
C31          N32   1.355       .  A
C31          N36   1.360       .  A
C31          C88   1.478       .  S
N32          C33   1.355       .  A
C33          N34   1.361       .  A
C33          C85   1.475       .  S
N34          C35   1.362       .  A
C35          N36   1.364       .  A
C35         C237   1.443       .  S
O37         Mn63   2.086       .  S
O37         C612   1.270   1_455  A
C38         C133   1.474       .  S
C38          O71   1.268       .  A
C38          O68   1.272       .  A
O39         Mn46   2.161       .  S
O39         Mn57   2.133       .  S
O39         Mn61   2.165       .  S
O39        Mn611   2.130       .  S
O40         Mn74   2.072       .  S
O40          C50   1.267       .  A
O41         Mn57   2.109       .  S
O41          C64   1.275       .  A
O42         Mn61   2.092       .  S
O42          C69   1.253       .  A
O43         Mn63   1.966       .  S
O43        Mn348   1.968       .  S
O43          C59   1.225       .  S
C44          C84   1.482       .  S
C44          O47   1.253       .  A
C44          O70   1.220       .  S
O45         Mn46   2.155       .  S
O45         Mn79   2.129       .  S
O45         Mn61   2.160       .  S
O45        Mn339   2.129       .  S
Mn46         O51   2.109       .  S
Mn46        O349   2.073       .  S
Mn46        O626   2.085       .  S
Mn46        O874   2.160       .  S
O47        Mn335   2.110   1_545  S
O48         Mn55   2.110       .  S
O48          C50   1.274       .  A
C49          C92   1.475       .  S
C49          O75   1.248       .  A
C49          O62   1.230       .  S
C50         C125   1.471       .  S
O51          C76   1.250       .  A
O52         Mn55   2.127       .  S
O52         Mn74   2.116       .  S
O52        Mn868   2.158   1_445  S
O52        Mn883   2.183   1_445  S
O53         Mn57   1.962       .  S
O53         Mn79   1.960       .  S
O53          C76   1.221       .  S
C54         C102   1.472       .  S
C54          O56   1.270       .  A
C54         O354   1.274       .  A
Mn55         O68   2.098       .  S
Mn55        O618   1.961   1_455  S
Mn55        O610   1.984   1_455  S
O56         Mn79   2.084       .  S
Mn57         O73   2.112       .  S
Mn57         O67   1.979       .  S
O58         Mn63   2.088       .  S
O58         C608   1.270       .  A
C59         C106   1.478       .  S
C59          O77   1.253       .  A
C60          C97   1.473       .  S
C60          O73   1.274       .  A
C60         O606   1.268       .  A
Mn61        O321   2.116       .  S
Mn61        O625   2.093       .  S
Mn61        O874   2.166       .  S
O62         Mn65   1.988       .  S
O62        Mn603   1.989       .  S
Mn63        O587   2.126   1_455  S
Mn63         O81   1.964       .  S
C64          C89   1.478       .  S
C64         O585   1.272       .  A
Mn65         O72   2.090       .  S
Mn65         O80   2.122       .  S
Mn65        O319   2.128   1_545  S
Mn65         O70   1.957       .  S
C66         C110   1.468       .  S
C66          O82   1.275       .  A
C66         O346   1.267       .  A
O67         Mn79   1.983       .  S
O67          C69   1.227       .  S
C69         C121   1.484       .  S
O70        Mn603   1.959       .  S
O71         Mn74   2.070       .  S
O72         C340   1.271   1_545  A
Mn74        O317   2.000   1_545  S
Mn74        O355   1.964   1_545  S
O75        Mn320   2.065   1_545  S
C76         C129   1.488       .  S
O77        Mn609   2.093   1_455  S
O78        Mn594   2.085   1_455  S
O78          C83   1.247       .  A
Mn79         O82   2.112       .  S
O80         C328   1.277   1_545  A
O81        Mn348   1.966       .  S
O81          C83   1.222       .  S
C83         C114   1.477       .  S
C84          C85   1.346       .  D
C84         H634   1.086       .  S
C85          H87   1.087       .  S
H86         C632   1.086       .  S
C88          C89   1.345       .  D
C88          H90   1.087       .  S
C89          H91   1.088       .  S
C92          C93   1.337       .  D
C92          H94   1.088       .  S
C93         H643   1.089       .  S
H95         C641   1.088       .  S
C96          C97   1.343       .  D
C96          H98   1.087       .  S
C97         H647   1.090       .  S
H99         C645   1.086       .  S
C100        C172   1.449   1_554  S
C100        C101   1.214       .  T
C102        C103   1.342       .  D
C102        H104   1.088       .  S
C103        H379   1.086       .  S
H105        C377   1.087       .  S
C106        C107   1.344       .  D
C106        H108   1.084       .  S
C107        H383   1.085       .  S
H109        C381   1.091       .  S
C110        C111   1.339       .  D
C110        H112   1.089       .  S
C111        H113   1.086       .  S
C114        C115   1.341       .  D
C114        H116   1.085       .  S
C115        H117   1.086       .  S
C118        C158   1.437   1_554  S
C118        C119   1.207       .  T
C120        C121   1.344       .  D
C120        H122   1.084       .  S
C121        H123   1.084       .  S
C124        C125   1.341       .  D
C124        H126   1.085       .  S
C125        H127   1.087       .  S
C128        C129   1.345       .  D
C128        H130   1.089       .  S
C129        H131   1.088       .  S
C132        C133   1.343       .  D
C132        H134   1.087       .  S
C133        H135   1.087       .  S
C136        C137   1.212       .  T
C137        C146   1.446   1_554  S
C138        N139   1.358       .  A
C138        N143   1.353       .  A
C138        C269   1.472       .  S
N139        C140   1.362       .  A
C140        N141   1.363       .  A
C140        C273   1.442       .  S
N141        C142   1.362       .  A
C142        N143   1.352       .  A
C142        C265   1.474       .  S
C144        N145   1.362       .  A
C144        N149   1.353       .  A
C144        C261   1.478       .  S
N145        C146   1.366       .  A
C146        N147   1.362       .  A
N147        C148   1.360       .  A
C148        N149   1.350       .  A
C148        C257   1.472       .  S
C150        N151   1.354       .  A
C150        N155   1.352       .  A
C150        C248   1.461       .  S
N151        C152   1.358       .  A
C152        N153   1.364       .  A
C152        C256   1.438       .  S
N153        C154   1.364       .  A
C154        N155   1.353       .  A
C154        C252   1.475       .  S
C156        N157   1.356       .  A
C156        N161   1.353       .  A
C156        C240   1.469       .  S
N157        C158   1.360       .  A
C158        N159   1.363       .  A
N159        C160   1.362       .  A
C160        N161   1.353       .  A
C160        C244   1.474       .  S
C162        N163   1.356       .  A
C162        N167   1.354       .  A
C162        C233   1.471       .  S
N163        C164   1.360       .  A
C164        N165   1.366       .  A
C164        C238   1.443       .  S
N165        C166   1.365       .  A
C166        N167   1.353       .  A
C166        C230   1.480       .  S
C168        N169   1.350       .  A
C168        N173   1.355       .  A
C168        C225   1.466       .  S
N169        C170   1.354       .  A
C170        N171   1.368       .  A
C170        C222   1.482       .  S
N171        C172   1.370       .  A
C172        N173   1.360       .  A
O174       Mn200   2.080       .  S
O174        C749   1.269   1_455  A
C175        C270   1.471       .  S
C175        O208   1.273       .  A
C175        O205   1.270       .  A
O176       Mn183   2.165       .  S
O176       Mn194   2.130       .  S
O176       Mn198   2.155       .  S
O176       Mn748   2.129       .  S
O177       Mn211   2.082       .  S
O177        C187   1.269       .  A
O178       Mn194   2.091       .  S
O178        C201   1.271       .  A
O179       Mn198   2.075       .  S
O179        C206   1.249       .  A
O180       Mn485   1.960       .  S
O180       Mn200   1.964       .  S
O180        C196   1.223       .  S
C181        C221   1.490       .  S
C181        O184   1.251       .  A
C181        O207   1.224       .  S
O182       Mn476   2.133       .  S
O182       Mn183   2.157       .  S
O182       Mn216   2.131       .  S
O182       Mn198   2.159       .  S
Mn183       O486   2.084       .  S
Mn183       O188   2.090       .  S
Mn183       O763   2.087       .  S
Mn183      O1011   2.147       .  S
O184       Mn472   2.103   1_545  S
O185       Mn192   2.113       .  S
O185        C187   1.274       .  A
C186        C229   1.485       .  S
C186        O212   1.251       .  A
C186        O199   1.226       .  S
C187        C262   1.474       .  S
O188        C213   1.248       .  A
O189      Mn1005   2.162   1_445  S
O189       Mn192   2.130       .  S
O189       Mn211   2.118       .  S
O189      Mn1020   2.165   1_445  S
O190       Mn194   1.960       .  S
O190       Mn216   1.959       .  S
O190        C213   1.222       .  S
C191        C239   1.468       .  S
C191        O491   1.273       .  A
C191        O193   1.268       .  A
Mn192       O205   2.088       .  S
Mn192       O755   1.952   1_455  S
Mn192       O747   1.989   1_455  S
O193       Mn216   2.076       .  S
Mn194       O210   2.103       .  S
Mn194       O204   1.977       .  S
O195       Mn200   2.079       .  S
O195        C745   1.268   1_455  A
C196        C243   1.480       .  S
C196        O214   1.250       .  A
C197        C234   1.470       .  S
C197        O743   1.267       .  A
C197        O210   1.272       .  A
Mn198       O458   2.094       .  S
Mn198       O762   2.089       .  S
Mn198      O1011   2.155       .  S
O199       Mn740   1.973       .  S
O199       Mn202   1.963       .  S
Mn200       O724   2.128   1_455  S
Mn200       O218   1.957       .  S
C201        C226   1.476       .  S
C201        O722   1.274       .  A
Mn202       O209   2.081       .  S
Mn202       O217   2.088       .  S
Mn202       O456   2.130   1_545  S
Mn202       O207   1.968       .  S
C203        C247   1.468       .  S
C203        O483   1.268       .  A
C203        O219   1.272       .  A
O204       Mn216   1.970       .  S
O204        C206   1.227       .  S
C206        C258   1.474       .  S
O207       Mn740   1.967       .  S
O208       Mn211   2.100       .  S
O209        C477   1.268   1_545  A
Mn211       O454   1.964   1_545  S
Mn211       O492   1.955   1_545  S
O212       Mn457   2.092   1_545  S
C213        C266   1.479       .  S
O214       Mn746   2.092   1_455  S
O215       Mn731   2.089   1_455  S
O215        C220   1.248       .  A
Mn216       O219   2.093       .  S
O217        C465   1.272   1_545  A
O218       Mn485   1.962       .  S
O218        C220   1.223       .  S
C220        C251   1.480       .  S
C221        C222   1.344       .  D
C221        H771   1.088       .  S
C222        H224   1.089       .  S
H223        C769   1.086       .  S
C225        C226   1.341       .  D
C225        H227   1.086       .  S
C226        H228   1.087       .  S
C229        C230   1.343       .  D
C229        H231   1.084       .  S
C230        H780   1.085       .  S
H232        C778   1.086       .  S
C233        C234   1.341       .  D
C233        H235   1.085       .  S
C234        H784   1.087       .  S
H236        C782   1.086   1_455  S
C237        C238   1.210       .  T
C239        C240   1.340       .  D
C239        H241   1.088       .  S
C240        H516   1.085       .  S
H242        C514   1.085       .  S
C243        C244   1.343       .  D
C243        H245   1.084       .  S
C244        H520   1.085       .  S
H246        C518   1.087   1_545  S
C247        C248   1.338       .  D
C247        H249   1.088       .  S
C248        H250   1.086       .  S
C251        C252   1.342       .  D
C251        H253   1.084       .  S
C252        H254   1.085       .  S
C255        C256   1.207       .  T
C257        C258   1.339       .  D
C257        H259   1.087       .  S
C258        H260   1.086       .  S
C261        C262   1.344       .  D
C261        H263   1.087       .  S
C262        H264   1.090       .  S
C265        C266   1.342       .  D
C265        H267   1.085       .  S
C266        H268   1.084       .  S
C269        C270   1.342       .  D
C269        H271   1.086       .  S
C270        H272   1.088       .  S
C273        C274   1.210       .  T
C275        N276   1.357       .  A
C275        N280   1.354       .  A
C275        C406   1.477       .  S
N276        C277   1.362       .  A
C277        N278   1.364       .  A
C277        C410   1.439       .  S
N278        C279   1.361       .  A
C279        N280   1.355       .  A
C279        C402   1.476       .  S
C281        N282   1.363       .  A
C281        N286   1.359       .  A
C281        C398   1.485       .  S
N282        C283   1.364       .  A
C283        N284   1.351       .  A
C283        C548   1.426       .  S
N284        C285   1.346       .  A
C285        N286   1.364       .  A
C285        C394   1.475       .  S
C287        N288   1.353       .  A
C287        N292   1.353       .  A
C287        C385   1.466       .  S
N288        C289   1.358       .  A
C289        N290   1.363       .  A
C289        C393   1.430       .  S
N290        C291   1.360       .  A
C291        N292   1.354       .  A
C291        C389   1.472       .  S
C293        N294   1.361       .  A
C293        N298   1.366       .  A
C293        C377   1.490   1_565  S
N294        C295   1.361       .  A
C295        N296   1.351       .  A
C295        C529   1.432       .  S
N296        C297   1.349       .  A
C297        N298   1.370       .  A
C297        C381   1.480       .  S
C299        N300   1.359       .  A
C299        N304   1.355       .  A
C299        C370   1.472       .  S
N300        C301   1.363       .  A
C301        N302   1.362       .  A
C301        C375   1.444       .  S
N302        C303   1.362       .  A
C303        N304   1.352       .  A
C303        C367   1.476       .  S
C305        N306   1.357       .  A
C305        N310   1.363       .  A
C305        C362   1.486       .  S
N306        C307   1.356       .  A
C307        N308   1.358       .  A
C307        C359   1.473       .  S
N308        C309   1.360       .  A
C309        N310   1.366       .  A
C309        C511   1.443       .  S
O311       Mn337   2.094       .  S
O311        C886   1.271   1_455  A
C312        C407   1.473       .  S
C312        O345   1.275       .  A
C312        O342   1.269       .  A
O313       Mn320   2.164       .  S
O313       Mn331   2.114       .  S
O313       Mn335   2.173       .  S
O313       Mn885   2.121       .  S
O314       Mn348   2.098       .  S
O314        C324   1.271       .  A
O315       Mn331   2.117       .  S
O315        C338   1.275       .  A
O316       Mn335   2.147       .  S
O316        C343   1.259       .  A
O317       Mn337   1.995       .  S
O317        C333   1.226       .  A
C318        C358   1.480       .  S
C318        O321   1.251       .  A
C318        O344   1.216       .  S
O319       Mn320   2.165       .  S
O319       Mn353   2.114       .  S
O319       Mn335   2.179       .  S
Mn320       O325   2.127       .  S
Mn320       O900   2.092       .  S
Mn320       O600   2.169   1_565  S
O322       Mn329   2.117       .  S
O322        C324   1.275       .  A
C323        C366   1.477       .  S
C323        O349   1.248       .  A
C323        O336   1.228       .  S
C324        C399   1.485       .  S
O325        C350   1.251       .  A
O326       Mn594   2.167   1_455  S
O326       Mn329   2.135       .  S
O326       Mn348   2.130       .  S
O326       Mn609   2.189   1_455  S
O327       Mn331   1.975       .  S
O327       Mn353   1.975       .  S
O327        C350   1.214       .  S
C328        C376   1.492       .  S
C328        O330   1.272       .  A
Mn329       O342   2.080       .  S
Mn329       O892   1.945   1_455  S
Mn329       O884   1.996   1_455  S
O330       Mn353   2.102       .  S
Mn331       O347   2.082       .  S
Mn331       O341   1.996       .  S
O332       Mn337   2.062       .  S
O332        C882   1.264   1_455  A
C333        C380   1.466       .  S
C333        O351   1.264       .  A
C334        C371   1.471       .  S
C334        O880   1.270       .  A
C334        O347   1.269       .  A
Mn335       O899   2.111       .  S
Mn335       O600   2.186   1_565  S
O336       Mn877   1.987       .  S
O336       Mn339   1.978       .  S
Mn337       O861   2.111   1_455  S
Mn337       O355   1.965       .  S
C338        C363   1.481       .  S
C338        O859   1.272       .  A
Mn339       O346   2.070       .  S
Mn339       O354   2.108       .  S
Mn339       O344   1.944       .  S
C340        C384   1.466       .  S
C340        O356   1.268       .  A
O341       Mn353   1.988       .  S
O341        C343   1.221       .  A
C343        C395   1.456       .  S
O344       Mn877   1.950       .  S
O345       Mn348   2.115       .  S
C350        C403   1.487       .  S
O351       Mn883   2.152   1_455  S
O352       Mn868   2.120   1_455  S
O352        C357   1.248       .  A
Mn353       O356   2.070       .  S
O355        C357   1.213       .  S
C357        C388   1.482       .  S
C358        C359   1.348       .  D
C358        H908   1.087       .  S
C359        H361   1.089       .  S
H360        C906   1.089       .  S
C362        C363   1.346       .  D
C362        H364   1.087       .  S
C363        H365   1.088       .  S
C366        C367   1.340       .  D
C366        H368   1.086       .  S
C367        H917   1.087       .  S
H369        C915   1.088       .  S
C370        C371   1.343       .  D
C370        H372   1.087       .  S
C371        H921   1.088       .  S
H373        C919   1.087   1_455  S
C374        C446   1.443   1_554  S
C374        C375   1.211       .  T
C376        C377   1.347   1_565  D
C376        H378   1.089       .  S
C380        C381   1.323       .  D
C380        H382   1.097       .  S
C384        C385   1.340       .  D
C384        H386   1.088   1_565  S
C385        H387   1.087       .  S
C388        C389   1.347       .  D
C388        H390   1.087       .  S
C389        H391   1.089       .  S
C392        C432   1.430   1_554  S
C392        C393   1.202       .  T
C394        C395   1.322       .  D
C394        H396   1.089       .  S
C395        H397   1.096       .  S
C398        C399   1.346       .  D
C398        H400   1.088       .  S
C399        H401   1.088       .  S
C402        C403   1.349       .  D
C402        H404   1.089       .  S
C403        H405   1.087       .  S
C406        C407   1.342       .  D
C406        H408   1.086       .  S
C407        H409   1.088       .  S
C410        C411   1.208       .  T
C411        C420   1.439   1_554  S
C412        N413   1.349       .  A
C412        N417   1.352       .  A
C412        C543   1.452       .  S
N413        C414   1.353       .  A
C414        N415   1.364       .  A
C414        C547   1.427       .  S
N415        C416   1.362       .  A
C416        N417   1.353       .  A
C416        C539   1.474       .  S
C418        N419   1.359       .  A
C418        N423   1.353       .  A
C418        C535   1.470       .  S
N419        C420   1.362       .  A
C420        N421   1.360       .  A
N421        C422   1.360       .  A
C422        N423   1.354       .  A
C422        C531   1.472       .  S
C424        N425   1.354       .  A
C424        N429   1.349       .  A
C424        C522   1.456       .  S
N425        C426   1.356       .  A
C426        N427   1.364       .  A
C426        C530   1.432       .  S
N427        C428   1.362       .  A
C428        N429   1.352       .  A
C428        C526   1.470       .  S
C430        N431   1.357   1_545  A
C430        N435   1.352       .  A
C430        C514   1.460       .  S
N431        C432   1.359       .  A
C432        N433   1.356       .  A
N433        C434   1.357       .  A
C434        N435   1.352   1_565  A
C434        C518   1.464       .  S
C436        N437   1.354       .  A
C436        N441   1.351       .  A
C436        C507   1.463       .  S
N437        C438   1.359       .  A
C438        N439   1.369       .  A
C438        C512   1.443       .  S
N439        C440   1.367       .  A
C440        N441   1.351       .  A
C440        C504   1.480       .  S
C442        N443   1.352       .  A
C442        N447   1.355       .  A
C442        C499   1.467       .  S
N443        C444   1.352       .  A
C444        N445   1.366       .  A
C444        C496   1.478       .  S
N445        C446   1.368       .  A
C446        N447   1.360       .  A
O448       Mn474   2.090       .  S
O448       C1023   1.272   1_455  A
C449        C544   1.460       .  S
C449        O482   1.269       .  A
C449        O479   1.268       .  A
O450       Mn457   2.164       .  S
O450       Mn468   2.126       .  S
O450       Mn472   2.159       .  S
O450      Mn1022   2.131       .  S
O451       Mn485   2.078       .  S
O451        C461   1.268       .  A
O452       Mn468   2.096       .  S
O452        C475   1.272       .  A
O453       Mn472   2.094       .  S
O453        C480   1.249       .  A
O454       Mn474   1.963       .  S
O454        C470   1.221       .  S
C455        C495   1.485       .  S
C455        O458   1.248       .  A
C455        O481   1.224       .  S
O456       Mn457   2.155       .  S
O456       Mn490   2.127       .  S
O456       Mn472   2.151       .  S
Mn457       O462   2.100       .  S
Mn457      O1037   2.092       .  S
Mn457       O737   2.156   1_565  S
O459       Mn466   2.113       .  S
O459        C461   1.275       .  A
C460        C503   1.485       .  S
C460        O486   1.250       .  A
C460        O473   1.229       .  S
C461        C536   1.476       .  S
O462        C487   1.250       .  A
O463       Mn731   2.158   1_455  S
O463       Mn466   2.134       .  S
O463       Mn485   2.125       .  S
O463       Mn746   2.154   1_455  S
O464       Mn468   1.958       .  S
O464       Mn490   1.963       .  S
O464        C487   1.221       .  S
C465        C513   1.471       .  S
C465        O467   1.269       .  A
Mn466       O479   2.077       .  S
Mn466      O1029   1.955   1_455  S
Mn466      O1021   1.985   1_455  S
O467       Mn490   2.086       .  S
Mn468       O484   2.093       .  S
Mn468       O478   1.964       .  S
O469       Mn474   2.078       .  S
O469       C1019   1.267   1_455  A
C470        C517   1.467       .  S
C470        O488   1.248       .  A
C471        C508   1.466       .  S
C471       O1017   1.267       .  A
C471        O484   1.271       .  A
Mn472      O1036   2.072       .  S
Mn472       O737   2.159   1_565  S
O473      Mn1014   1.984       .  S
O473       Mn476   1.973       .  S
Mn474       O998   2.122   1_455  S
Mn474       O492   1.951       .  S
C475        C500   1.468       .  S
C475        O996   1.269       .  A
Mn476       O483   2.079       .  S
Mn476       O491   2.103       .  S
Mn476       O481   1.961       .  S
C477        C521   1.465       .  S
C477        O493   1.271       .  A
O478       Mn490   1.959       .  S
O478        C480   1.221       .  S
C480        C532   1.477       .  S
O481      Mn1014   1.973       .  S
O482       Mn485   2.073       .  S
C487        C540   1.481       .  S
O488      Mn1020   2.083   1_455  S
O489      Mn1005   2.104   1_455  S
O489        C494   1.248       .  A
Mn490       O493   2.082       .  S
O492        C494   1.219       .  S
C494        C525   1.478       .  S
C495        C496   1.342       .  D
C495       H1045   1.085       .  S
C496        H498   1.087       .  S
H497       C1043   1.085       .  S
C499        C500   1.341       .  D
C499        H501   1.085       .  S
C500        H502   1.087       .  S
C503        C504   1.341       .  D
C503        H505   1.084       .  S
C504       H1054   1.085       .  S
H506       C1052   1.085       .  S
C507        C508   1.340       .  D
C507        H509   1.086       .  S
C508       H1058   1.088       .  S
H510       C1056   1.087   1_455  S
C511        C512   1.211       .  T
C513        C514   1.340   1_565  D
C513        H515   1.087       .  S
C517        C518   1.341       .  D
C517        H519   1.086       .  S
C521        C522   1.337       .  D
C521        H523   1.088   1_565  S
C522        H524   1.086       .  S
C525        C526   1.343       .  D
C525        H527   1.087       .  S
C526        H528   1.089       .  S
C529        C530   1.204       .  T
C531        C532   1.344       .  D
C531        H533   1.085       .  S
C532        H534   1.084       .  S
C535        C536   1.340       .  D
C535        H537   1.086       .  S
C536        H538   1.089       .  S
C539        C540   1.343       .  D
C539        H541   1.087       .  S
C540        H542   1.085       .  S
C543        C544   1.337       .  D
C543        H545   1.087       .  S
C544        H546   1.088       .  S
C547        C548   1.201       .  T
C549        N550   1.357       .  A
C549        N554   1.355       .  A
C549        C680   1.478       .  S
N550        C551   1.361       .  A
C551        N552   1.364       .  A
C551        C684   1.440       .  S
N552        C553   1.362       .  A
C553        N554   1.357       .  A
C553        C676   1.478       .  S
C555        N556   1.364       .  A
C555        N560   1.362       .  A
C555        C672   1.491       .  S
N556        C557   1.365       .  A
C557        N558   1.353       .  A
C557        C822   1.433       .  S
N558        C559   1.348       .  A
C559        N560   1.365       .  A
C559        C668   1.477       .  S
C561        N562   1.354       .  A
C561        N566   1.354       .  A
C561        C659   1.467       .  S
N562        C563   1.359       .  A
C563        N564   1.363       .  A
C563        C667   1.437       .  S
N564        C565   1.362       .  A
C565        N566   1.353       .  A
C565        C663   1.475       .  S
C567        N568   1.361       .  A
C567        N572   1.355       .  A
C567        C651   1.479       .  S
N568        C569   1.365       .  A
C569        N570   1.360       .  A
C569        C803   1.442       .  S
N570        C571   1.359       .  A
C571        N572   1.353       .  A
C571        C655   1.473       .  S
C573        N574   1.358       .  A
C573        N578   1.354       .  A
C573        C644   1.467       .  S
N574        C575   1.361       .  A
C575        N576   1.360       .  A
C575        C649   1.439       .  S
N576        C577   1.362       .  A
C577        N578   1.351       .  A
C577        C641   1.473       .  S
C579        N580   1.356       .  A
C579        N584   1.357       .  A
C579        C636   1.481       .  S
N580        C581   1.358       .  A
C581        N582   1.365       .  A
C581        C633   1.484       .  S
N582        C583   1.367       .  A
C583        N584   1.362       .  A
C583        C785   1.446       .  S
O585       Mn611   2.094       .  S
C586        C681   1.477       .  S
C586        O619   1.275       .  A
C586        O616   1.271       .  A
O587       Mn594   2.162       .  S
O587       Mn605   2.113       .  S
O587       Mn609   2.176       .  S
O588       Mn622   2.110       .  S
O588        C598   1.273       .  A
O589       Mn605   2.115       .  S
O589        C612   1.275       .  A
O590       Mn609   2.151       .  S
O590        C617   1.260       .  A
O591       Mn896   1.967       .  S
O591       Mn611   1.961       .  S
O591        C607   1.222       .  S
C592        C632   1.492       .  S
C592        O595   1.256       .  A
C592        O618   1.221       .  S
O593       Mn887   2.122       .  S
O593       Mn594   2.161       .  S
O593       Mn627   2.114       .  S
O593       Mn609   2.167       .  S
Mn594       O897   2.064       .  S
Mn594       O599   2.131       .  S
O595       Mn883   2.126   1_545  S
O596       Mn603   2.117       .  S
O596        C598   1.275       .  A
C597        C640   1.471       .  S
C597        O623   1.247       .  A
C597        O610   1.228       .  S
C598        C673   1.489       .  S
O599        C624   1.251       .  A
O600       Mn603   2.138       .  S
O600       Mn622   2.130       .  S
O601       Mn605   1.977       .  S
O601       Mn627   1.969       .  S
O601        C624   1.213       .  S
C602        C650   1.476       .  S
C602        O902   1.274       .  A
C602        O604   1.270       .  A
Mn603       O616   2.089       .  S
O604       Mn627   2.087       .  S
Mn605       O621   2.069       .  S
Mn605       O615   1.991       .  S
O606       Mn611   2.078       .  S
C607        C654   1.478       .  S
C607        O625   1.251       .  A
C608        C645   1.466       .  S
C608        O621   1.267   1_455  A
Mn609       O869   2.123       .  S
O610       Mn613   1.979       .  S
Mn611       O629   1.967       .  S
C612        C637   1.478       .  S
Mn613       O620   2.077       .  S
Mn613       O628   2.112       .  S
Mn613       O867   2.133   1_545  S
Mn613       O618   1.954       .  S
C614        C658   1.464       .  S
C614        O894   1.268       .  A
C614        O630   1.270       .  A
O615       Mn627   1.999       .  S
O615        C617   1.224       .  A
C617        C669   1.461       .  S
O619       Mn622   2.112       .  S
O620        C888   1.268   1_545  A
Mn622       O865   1.962   1_545  S
Mn622       O903   1.974   1_545  S
O623       Mn868   2.061   1_545  S
C624        C677   1.488       .  S
O626        C631   1.248       .  A
Mn627       O630   2.083       .  S
O628        C876   1.275   1_545  A
O629       Mn896   1.968       .  S
O629        C631   1.224       .  S
C631        C662   1.479       .  S
C632        C633   1.351       .  D
C633        H635   1.087       .  S
C636        C637   1.343       .  D
C636        H638   1.087       .  S
C637        H639   1.088   1_655  S
C640        C641   1.337       .  D
C640        H642   1.088       .  S
C644        C645   1.342   1_655  D
C644        H646   1.085       .  S
C648        C720   1.439   1_554  S
C648        C649   1.208       .  T
C650        C651   1.344       .  D
C650        H652   1.088       .  S
C651        H927   1.087       .  S
H653        C925   1.087       .  S
C654        C655   1.344       .  D
C654        H656   1.084       .  S
C655        H931   1.085       .  S
H657        C929   1.088       .  S
C658        C659   1.338       .  D
C658        H660   1.088       .  S
C659        H661   1.086       .  S
C662        C663   1.342       .  D
C662        H664   1.084       .  S
C663        H665   1.085       .  S
C666        C706   1.437   1_554  S
C666        C667   1.207       .  T
C668        C669   1.325       .  D
C668        H670   1.090       .  S
C669        H671   1.097       .  S
C672        C673   1.349       .  D
C672        H674   1.086       .  S
C673        H675   1.085       .  S
C676        C677   1.350       .  D
C676        H678   1.088       .  S
C677        H679   1.086       .  S
C680        C681   1.343       .  D
C680        H682   1.086       .  S
C681        H683   1.087       .  S
C684        C685   1.209       .  T
C685        C694   1.441   1_554  S
C686        N687   1.353       .  A
C686        N691   1.350       .  A
C686        C817   1.456       .  S
N687        C688   1.356       .  A
C688        N689   1.365       .  A
C688        C821   1.435       .  S
N689        C690   1.363       .  A
C690        N691   1.353       .  A
C690        C813   1.474       .  S
C692        N693   1.358       .  A
C692        N697   1.353       .  A
C692        C809   1.469       .  S
N693        C694   1.363       .  A
C694        N695   1.362       .  A
N695        C696   1.361       .  A
C696        N697   1.350       .  A
C696        C805   1.472       .  S
C698        N699   1.354       .  A
C698        N703   1.350       .  A
C698        C796   1.460       .  S
N699        C700   1.358       .  A
C700        N701   1.367       .  A
C700        C804   1.442       .  S
N701        C702   1.366       .  A
C702        N703   1.352       .  A
C702        C800   1.476       .  S
C704        N705   1.358       .  A
C704        N709   1.354       .  A
C704        C788   1.473       .  S
N705        C706   1.362       .  A
C706        N707   1.361       .  A
N707        C708   1.360       .  A
C708        N709   1.352       .  A
C708        C792   1.471       .  S
C710        N711   1.360       .  A
C710        N715   1.352       .  A
C710        C781   1.472       .  S
N711        C712   1.365       .  A
C712        N713   1.364       .  A
C712        C786   1.447       .  S
N713        C714   1.363       .  A
C714        N715   1.350       .  A
C714        C778   1.475       .  S
C716        N717   1.353       .  A
C716        N721   1.354       .  A
C716        C773   1.469       .  S
N717        C718   1.353       .  A
C718        N719   1.364       .  A
C718        C770   1.477       .  S
N719        C720   1.365       .  A
C720        N721   1.360       .  A
O722       Mn748   2.098       .  S
C723        C818   1.467       .  S
C723        O756   1.270       .  A
C723        O753   1.270       .  A
O724       Mn731   2.167       .  S
O724       Mn742   2.130       .  S
O724       Mn746   2.163       .  S
O725       Mn759   2.075       .  S
O725        C735   1.267       .  A
O726       Mn742   2.100       .  S
O726        C749   1.273       .  A
O727       Mn746   2.077       .  S
O727        C754   1.248       .  A
O728      Mn1033   1.960       .  S
O728       Mn748   1.958       .  S
O728        C744   1.222       .  S
C729        C769   1.484       .  S
C729        O732   1.248       .  A
C729        O755   1.220       .  S
O730      Mn1024   2.132       .  S
O730       Mn731   2.151       .  S
O730       Mn764   2.129       .  S
O730       Mn746   2.158       .  S
Mn731      O1034   2.084       .  S
Mn731       O736   2.101       .  S
O732      Mn1020   2.102   1_545  S
O733       Mn740   2.104       .  S
O733        C735   1.273       .  A
C734        C777   1.478       .  S
C734        O760   1.250       .  A
C734        O747   1.230       .  S
C735        C810   1.468       .  S
O736        C761   1.250       .  A
O737       Mn740   2.130       .  S
O737       Mn759   2.133       .  S
O738       Mn742   1.952       .  S
O738       Mn764   1.960       .  S
O738        C761   1.222       .  S
C739        C787   1.471       .  S
C739       O1039   1.273       .  A
C739        O741   1.269       .  A
Mn740       O753   2.088       .  S
O741       Mn764   2.082       .  S
Mn742       O758   2.107       .  S
Mn742       O752   1.979       .  S
O743       Mn748   2.077       .  S
C744        C791   1.476       .  S
C744        O762   1.248       .  A
C745        C782   1.471       .  S
C745        O758   1.273       .  A
Mn746      O1006   2.107       .  S
O747       Mn750   1.984       .  S
Mn748       O766   1.971       .  S
C749        C774   1.469       .  S
Mn750       O757   2.079       .  S
Mn750       O765   2.097       .  S
Mn750      O1004   2.130   1_545  S
Mn750       O755   1.949       .  S
C751        C795   1.469       .  S
C751       O1031   1.270       .  A
C751        O767   1.272       .  A
O752       Mn764   1.975       .  S
O752        C754   1.226       .  S
C754        C806   1.475       .  S
O756       Mn759   2.076       .  S
O757       C1025   1.269   1_545  A
Mn759      O1002   1.966   1_545  S
Mn759      O1040   1.963   1_545  S
O760      Mn1005   2.074   1_545  S
C761        C814   1.482       .  S
O763        C768   1.248       .  A
Mn764       O767   2.089       .  S
O765       C1013   1.271   1_545  A
O766      Mn1033   1.971       .  S
O766        C768   1.225       .  S
C768        C799   1.481       .  S
C769        C770   1.344       .  D
C770        H772   1.087       .  S
C773        C774   1.340       .  D
C773        H775   1.085       .  S
C774        H776   1.087   1_655  S
C777        C778   1.338       .  D
C777        H779   1.085       .  S
C781        C782   1.343       .  D
C781        H783   1.084       .  S
C785        C786   1.212       .  T
C787        C788   1.342       .  D
C787        H789   1.087       .  S
C788       H1064   1.085       .  S
H790       C1062   1.085   1_545  S
C791        C792   1.342       .  D
C791        H793   1.084       .  S
C792       H1068   1.085       .  S
H794       C1066   1.087       .  S
C795        C796   1.339       .  D
C795        H797   1.088       .  S
C796        H798   1.086       .  S
C799        C800   1.341       .  D
C799        H801   1.084       .  S
C800        H802   1.086       .  S
C803        C804   1.210       .  T
C805        C806   1.339       .  D
C805        H807   1.087       .  S
C806        H808   1.086       .  S
C809        C810   1.341       .  D
C809        H811   1.085       .  S
C810        H812   1.087       .  S
C813        C814   1.343       .  D
C813        H815   1.088       .  S
C814        H816   1.086       .  S
C817        C818   1.339       .  D
C817        H819   1.086       .  S
C818        H820   1.088       .  S
C821        C822   1.205       .  T
C823        N824   1.357       .  A
C823        N828   1.350       .  A
C823        C954   1.468       .  S
N824        C825   1.362       .  A
C825        N826   1.364       .  A
C825        C958   1.439       .  S
N826        C827   1.361       .  A
C827        N828   1.349       .  A
C827        C950   1.469       .  S
C829        N830   1.362       .  A
C829        N834   1.359       .  A
C829        C946   1.485       .  S
N830        C831   1.363       .  A
C831        N832   1.356       .  A
C831       C1096   1.433       .  S
N832        C833   1.352       .  A
C833        N834   1.363       .  A
C833        C942   1.479       .  S
C835        N836   1.355       .  A
C835        N840   1.354       .  A
C835        C933   1.472       .  S
N836        C837   1.360       .  A
C837        N838   1.365       .  A
C837        C941   1.440       .  S
N838        C839   1.364       .  A
C839        N840   1.354       .  A
C839        C937   1.478       .  S
C841        N842   1.362       .  A
C841        N846   1.355       .  A
C841        C925   1.480   1_565  S
N842        C843   1.365       .  A
C843        N844   1.361       .  A
C843       C1077   1.445       .  S
N844        C845   1.360       .  A
C845        N846   1.357       .  A
C845        C929   1.476       .  S
C847        N848   1.354       .  A
C847        N852   1.351       .  A
C847        C918   1.457       .  S
N848        C849   1.358       .  A
C849        N850   1.364       .  A
C849        C923   1.440       .  S
N850        C851   1.365       .  A
C851        N852   1.351       .  A
C851        C915   1.475       .  S
C853        N854   1.356       .  A
C853        N858   1.363       .  A
C853        C910   1.488       .  S
N854        C855   1.356       .  A
C855        N856   1.361       .  A
C855        C907   1.476       .  S
N856        C857   1.363       .  A
C857        N858   1.367       .  A
C857       C1059   1.448       .  S
O859       Mn885   2.093       .  S
C860        C955   1.464       .  S
C860        O893   1.273       .  A
C860        O890   1.268       .  A
O861       Mn868   2.166       .  S
O861       Mn879   2.114       .  S
O861       Mn883   2.182       .  S
O862       Mn896   2.101       .  S
O862        C872   1.271       .  A
O863       Mn879   2.119       .  S
O863        C886   1.275       .  A
O864       Mn883   2.143       .  S
O864        C891   1.258       .  A
O865       Mn885   1.961       .  S
O865        C881   1.221       .  S
C866        C906   1.485       .  S
C866        O869   1.253       .  A
C866        O892   1.217       .  S
O867       Mn868   2.167       .  S
O867       Mn901   2.119       .  S
O867       Mn883   2.186       .  S
Mn868       O873   2.090       .  S
O870       Mn877   2.113       .  S
O870        C872   1.274       .  A
C871        C914   1.475       .  S
C871        O897   1.248       .  A
C871        O884   1.230       .  S
C872        C947   1.483       .  S
O873        C898   1.246       .  A
O874       Mn877   2.133       .  S
O874       Mn896   2.127       .  S
O875       Mn879   1.970       .  S
O875       Mn901   1.971       .  S
O875        C898   1.221       .  S
C876        C924   1.488       .  S
C876        O878   1.272       .  A
Mn877       O890   2.076       .  S
O878       Mn901   2.102       .  S
Mn879       O895   2.082       .  S
Mn879       O889   1.931       .  S
O880       Mn885   2.088       .  S
C881        C928   1.482       .  S
C881        O899   1.255       .  A
C882        C919   1.465       .  S
C882        O895   1.269       .  A
O884       Mn887   1.983       .  S
Mn885       O903   1.968       .  S
C886        C911   1.483   1_655  S
Mn887       O894   2.074       .  S
Mn887       O902   2.110       .  S
Mn887       O892   1.944       .  S
C888        C932   1.469       .  S
C888        O904   1.274       .  A
O889       Mn901   1.946       .  S
O889        C891   1.208       .  S
C891        C943   1.466       .  S
O893       Mn896   2.101       .  S
C898        C951   1.478       .  S
O900        C905   1.249       .  A
Mn901       O904   2.107       .  S
O903        C905   1.223       .  S
C905        C936   1.483       .  S
C906        C907   1.349       .  D
C907        H909   1.090       .  S
C910        C911   1.348   1_655  D
C910        H912   1.087       .  S
C911        H913   1.088       .  S
C914        C915   1.337       .  D
C914        H916   1.087       .  S
C918        C919   1.338       .  D
C918        H920   1.085       .  S
C922        C994   1.441   1_554  S
C922        C923   1.209       .  T
C924        C925   1.345   1_565  D
C924        H926   1.089       .  S
C928        C929   1.348       .  D
C928        H930   1.087       .  S
C932        C933   1.340       .  D
C932        H934   1.088   1_565  S
C933        H935   1.086       .  S
C936        C937   1.343       .  D
C936        H938   1.084       .  S
C937        H939   1.085       .  S
C940        C980   1.441   1_554  S
C940        C941   1.209       .  T
C942        C943   1.335       .  D
C942        H944   1.085       .  S
C943        H945   1.087       .  S
C946        C947   1.346       .  D
C946        H948   1.087       .  S
C947        H949   1.085       .  S
C950        C951   1.340       .  D
C950        H952   1.086       .  S
C951        H953   1.084       .  S
C954        C955   1.341       .  D
C954        H956   1.086       .  S
C955        H957   1.088       .  S
C958        C959   1.208       .  T
C959        C968   1.439   1_554  S
C960        N961   1.355       .  A
C960        N965   1.352       .  A
C960       C1091   1.462       .  S
N961        C962   1.358       .  A
C962        N963   1.363       .  A
C962       C1095   1.434       .  S
N963        C964   1.361       .  A
C964        N965   1.354       .  A
C964       C1087   1.475       .  S
C966        N967   1.357       .  A
C966        N971   1.353       .  A
C966       C1083   1.468       .  S
N967        C968   1.361       .  A
C968        N969   1.361       .  A
N969        C970   1.361       .  A
C970        N971   1.353       .  A
C970       C1079   1.473       .  S
C972        N973   1.356       .  A
C972        N977   1.352       .  A
C972       C1070   1.470       .  S
N973        C974   1.361       .  A
C974        N975   1.369       .  A
C974       C1078   1.445       .  S
N975        C976   1.366       .  A
C976        N977   1.352       .  A
C976       C1074   1.481       .  S
C978        N979   1.359       .  A
C978        N983   1.352       .  A
C978       C1062   1.469       .  S
N979        C980   1.363       .  A
C980        N981   1.362       .  A
N981        C982   1.361       .  A
C982        N983   1.349       .  A
C982       C1066   1.470       .  S
C984        N985   1.356       .  A
C984        N989   1.353       .  A
C984       C1055   1.468       .  S
N985        C986   1.361       .  A
C986        N987   1.369       .  A
C986       C1060   1.447       .  S
N987        C988   1.367       .  A
C988        N989   1.352       .  A
C988       C1052   1.483       .  S
C990        N991   1.355       .  A
C990        N995   1.358       .  A
C990       C1047   1.476       .  S
N991        C992   1.356       .  A
C992        N993   1.361       .  A
C992       C1044   1.476       .  S
N993        C994   1.362       .  A
C994        N995   1.362       .  A
O996      Mn1022   2.081       .  S
C997       C1092   1.472       .  S
C997       O1030   1.273       .  A
C997       O1027   1.272       .  A
O998      Mn1005   2.170       .  S
O998      Mn1016   2.126       .  S
O998      Mn1020   2.157       .  S
O999      Mn1033   2.077       .  S
O999       C1009   1.268       .  A
O1000     Mn1016   2.111       .  S
O1000      C1023   1.276       .  A
O1001     Mn1020   2.086       .  S
O1001      C1028   1.249       .  A
O1002     Mn1022   1.970       .  S
O1002      C1018   1.227       .  S
C1003      C1043   1.482       .  S
C1003      O1006   1.251       .  A
C1003      O1029   1.219       .  S
O1004     Mn1005   2.153       .  S
O1004     Mn1038   2.127       .  S
O1004     Mn1020   2.158       .  S
Mn1005     O1010   2.109       .  S
O1007     Mn1014   2.106       .  S
O1007      C1009   1.274       .  A
C1008      C1051   1.486       .  S
C1008      O1034   1.250       .  A
C1008      O1021   1.229       .  S
C1009      C1084   1.472       .  S
O1010      C1035   1.251       .  A
O1011     Mn1014   2.131       .  S
O1011     Mn1033   2.129       .  S
O1012     Mn1016   1.958       .  S
O1012     Mn1038   1.958       .  S
O1012      C1035   1.219       .  S
C1013      C1061   1.468       .  S
C1013      O1015   1.269       .  A
Mn1014     O1027   2.093       .  S
O1015     Mn1038   2.083       .  S
Mn1016     O1032   2.101       .  S
Mn1016     O1026   1.975       .  S
O1017     Mn1022   2.077       .  S
C1018      C1065   1.473       .  S
C1018      O1036   1.247       .  A
C1019      C1056   1.469       .  S
C1019      O1032   1.272       .  A
O1021     Mn1024   1.980       .  S
Mn1022     O1040   1.960       .  S
C1023      C1048   1.477       .  S
Mn1024     O1031   2.085       .  S
Mn1024     O1039   2.106       .  S
Mn1024     O1029   1.957       .  S
C1025      C1069   1.470       .  S
C1025      O1041   1.275       .  A
O1026     Mn1038   1.973       .  S
O1026      C1028   1.224       .  S
C1028      C1080   1.477       .  S
O1030     Mn1033   2.088       .  S
C1035      C1088   1.482       .  S
O1037      C1042   1.250       .  A
Mn1038     O1041   2.108       .  S
O1040      C1042   1.226       .  S
C1042      C1073   1.487       .  S
C1043      C1044   1.346       .  D
C1044      H1046   1.086       .  S
C1047      C1048   1.343       .  D
C1047      H1049   1.086       .  S
C1048      H1050   1.088   1_655  S
C1051      C1052   1.342       .  D
C1051      H1053   1.084       .  S
C1055      C1056   1.340       .  D
C1055      H1057   1.084       .  S
C1059      C1060   1.213       .  T
C1061      C1062   1.343       .  D
C1061      H1063   1.087       .  S
C1065      C1066   1.337       .  D
C1065      H1067   1.086       .  S
C1069      C1070   1.340       .  D
C1069      H1071   1.088   1_565  S
C1070      H1072   1.086       .  S
C1073      C1074   1.342       .  D
C1073      H1075   1.084       .  S
C1074      H1076   1.086       .  S
C1077      C1078   1.212       .  T
C1079      C1080   1.342       .  D
C1079      H1081   1.085       .  S
C1080      H1082   1.084       .  S
C1083      C1084   1.340       .  D
C1083      H1085   1.085       .  S
C1084      H1086   1.088       .  S
C1087      C1088   1.346       .  D
C1087      H1089   1.087       .  S
C1088      H1090   1.085       .  S
C1091      C1092   1.341       .  D
C1091      H1093   1.086       .  S
C1092      H1094   1.087       .  S
C1095      C1096   1.205       .  T
