geometry optimzed in LAMMPS
_audit_creation_date              2020-11-30 
_audit_creation_method            'lammps2cif' 
_symmetry_space_group_name_H-M    'P1' 
_symmetry_Int_Tables_number       1 
_symmetry_cell_setting            triclinic 
loop_ 
_symmetry_equiv_pos_as_xyz 
  x,y,z 
_cell_length_a                    30.98595338686061 
_cell_length_b                    30.969602422543744 
_cell_length_c                    36.757512037944466 
_cell_angle_alpha                 90.0554842486612 
_cell_angle_beta                  90.04303087165793 
_cell_angle_gamma                 119.95963720507386 
loop_ 
_atom_site_label 
_atom_site_type_symbol 
_atom_site_fract_x 
_atom_site_fract_y 
_atom_site_fract_z 
_atom_site_charge 
O1          O  0.06445266  0.55488721  0.53713337    -0.73120
O2          O  0.00949901  0.44804060  0.46086688    -0.74100
O3          O  0.06261486  0.55301836  0.45994040    -0.62720
O4          O  0.01091859  0.44933505  0.53814292    -0.71130
O5          O  0.93901384  0.44809108  0.53872917    -0.70680
O6          O  0.99159186  0.55431820  0.46181662    -0.61940
O7          O  0.93787262  0.44808566  0.46158695    -0.74450
O8          O  0.99195102  0.55318347  0.53910177    -0.73220
Cu9        Cu  0.03932874  0.50126464  0.49900330     1.04560
Cu10       Cu  0.96260103  0.50097297  0.50024705     1.04330
C11         C  0.03648370  0.57022984  0.55050453     0.93080
C12         C  0.96511706  0.43127401  0.44918874     0.92220
C13         C  0.03513472  0.57012568  0.44869412     0.84360
C14         C  0.96702253  0.43217533  0.55105885     0.90630
O15         O  0.56645187  0.55132678  0.03775026    -0.73120
O16         O  0.51178181  0.44681853  0.96034790    -0.74100
O17         O  0.56369542  0.55195229  0.96065407    -0.62720
O18         O  0.51401785  0.44618593  0.03769382    -0.71130
O19         O  0.44249993  0.44657172  0.03918653    -0.70680
O20         O  0.49260653  0.55260562  0.96264785    -0.61940
O21         O  0.44005431  0.44676994  0.96223521    -0.74450
O22         O  0.49580195  0.55240549  0.04013343    -0.73220
Cu23       Cu  0.54146596  0.49911154  0.99905502     1.04560
Cu24       Cu  0.46521976  0.49962598  0.00111583     1.04330
C25         C  0.54031841  0.56850890  0.05152333     0.93080
C26         C  0.46733978  0.43041862  0.94907181     0.92220
C27         C  0.53605523  0.56897409  0.94932609     0.84360
C28         C  0.47028287  0.42983607  0.05049878     0.90630
O29         O  0.01104630  0.56260711  0.03992878    -0.73120
O30         O  0.06387983  0.51346291  0.95978284    -0.74100
O31         O  0.00840261  0.56387888  0.96269360    -0.62720
O32         O  0.06686716  0.51263624  0.03694251    -0.71130
O33         O  0.99516436  0.44136775  0.03833410    -0.70680
O34         O  0.93866709  0.49047682  0.96105880    -0.61940
O35         O  0.99386206  0.44064811  0.96116565    -0.74450
O36         O  0.93906664  0.49132985  0.03826066    -0.73220
Cu37       Cu  0.04001178  0.54074238  0.99982331     1.04560
Cu38       Cu  0.96426719  0.46341477  0.99977891     1.04330
C39         C  0.96664163  0.53482266  0.05149323     0.93080
C40         C  0.03717250  0.46896928  0.94794502     0.92220
C41         C  0.96488294  0.53522874  0.94981145     0.84360
C42         C  0.03981885  0.46886215  0.04974933     0.90630
N43         N  0.77566071  0.13718574  0.21025665    -0.27470
N44         N  0.79158584  0.11073907  0.19254527    -0.35320
C45         C  0.76242729  0.08960616  0.16345755     0.00870
C46         C  0.72546922  0.10254088  0.16259724     0.06900
C47         C  0.73526522  0.13282804  0.19309182    -0.06200
H48         H  0.76771316  0.06590812  0.14452515     0.07570
H49         H  0.71432444  0.14947057  0.20322573     0.08770
Cu50       Cu  0.84861270  0.09924908  0.20984006     0.44170
Cu51       Cu  0.81056282  0.17853256  0.25653675     0.41990
Cu52       Cu  0.91211995  0.16162464  0.29057302     0.43880
N53         N  0.89983623  0.08520041  0.23539875    -0.34850
N54         N  0.92266369  0.10756132  0.26588170    -0.29110
C55         C  0.95266710  0.09005236  0.27631595    -0.05210
C56         C  0.94865243  0.05512096  0.25096581     0.07010
C57         C  0.91477946  0.05296481  0.22542534     0.00810
H58         H  0.97614118  0.10228741  0.30025873     0.08460
H59         H  0.90218664  0.02989878  0.20127740     0.07540
N60         N  0.89617365  0.21501477  0.30958512    -0.36300
N61         N  0.85872613  0.22058115  0.29815321    -0.28480
C62         C  0.85926514  0.25844383  0.31659528    -0.03720
C63         C  0.89932643  0.27777029  0.34022933     0.04890
C64         C  0.92173949  0.24935279  0.33522720     0.02980
H65         H  0.83298242  0.27138515  0.31268443     0.08090
H66         H  0.95408784  0.25311581  0.34936157     0.06920
N67         N  0.14128488  0.77577406  0.29389150    -0.27470
N68         N  0.10557753  0.78407049  0.30524152    -0.35320
C69         C  0.08146245  0.75364455  0.33311872     0.00870
C70         C  0.10348090  0.72533401  0.34052438     0.06900
C71         C  0.14084640  0.73970306  0.31470517    -0.06200
H72         H  0.04945660  0.75176628  0.34636025     0.07570
H73         H  0.16611179  0.72536745  0.31155259     0.08770
Cu74       Cu  0.09039839  0.83691286  0.28441433     0.44170
Cu75       Cu  0.18821152  0.81440772  0.25050243     0.41990
Cu76       Cu  0.15860960  0.90429459  0.20790380     0.43880
N77         N  0.08067487  0.89204124  0.26111575    -0.34850
N78         N  0.10526621  0.91653238  0.23182671    -0.29110
C79         C  0.09068545  0.94929918  0.22252210    -0.05210
C80         C  0.05536692  0.94534045  0.24744525     0.07010
C81         C  0.05007384  0.90874194  0.27159478     0.00810
H82         H  0.10485024  0.97426468  0.19948684     0.08460
H83         H  0.02557900  0.89507787  0.29490811     0.07540
N84         N  0.21503906  0.89152535  0.19125490    -0.36300
N85         N  0.22656460  0.85979643  0.20635073    -0.28480
C86         C  0.26617263  0.86287272  0.18874157    -0.03720
C87         C  0.28046382  0.89873739  0.16180324     0.04890
C88         C  0.24674911  0.91544601  0.16392532     0.02980
H89         H  0.28364774  0.84111147  0.19532601     0.08090
H90         H  0.24469465  0.94249550  0.14653505     0.06920
C91         C  0.94938171  0.97448248  0.24916297     0.02110
C92         C  0.97617946  0.02719962  0.25032601     0.02110
C93         C  0.02902181  0.05328640  0.25022953     0.02110
C94         C  0.05518062  0.02652817  0.24922242     0.02110
C95         C  0.02827545  0.97368542  0.24802377     0.02110
C96         C  0.97542215  0.94769634  0.24771611     0.02110
N97         N  0.63785321  0.77504143  0.20993093    -0.27470
N98         N  0.68025687  0.78910981  0.19281391    -0.35320
C99         C  0.67174215  0.75862977  0.16445690     0.00870
C100        C  0.62148106  0.72288833  0.16347193     0.06900
C101        C  0.60128481  0.73461183  0.19312149    -0.06200
H102        H  0.70053188  0.76217994  0.14603352     0.07570
H103        H  0.56347814  0.71490989  0.20288909     0.08770
Cu104      Cu  0.74914636  0.84596083  0.20987129     0.44170
Cu105      Cu  0.63223828  0.81218305  0.25511883     0.41990
Cu106      Cu  0.75139903  0.90868830  0.29197455     0.43880
N107        N  0.81472007  0.89806549  0.23479223    -0.34850
N108        N  0.81561669  0.92053170  0.26558724    -0.29110
C109        C  0.86329283  0.95094138  0.27546000    -0.05210
C110        C  0.89388627  0.94746729  0.24955136     0.07010
C111        C  0.86176246  0.91363539  0.22412581     0.00810
H112        H  0.87487680  0.97388292  0.29968739     0.08460
H113        H  0.87185614  0.90106675  0.19979913     0.07540
N114        N  0.68233656  0.89351224  0.31144245    -0.36300
N115        N  0.63908540  0.85908249  0.29786890    -0.28480
C116        C  0.60201845  0.86039841  0.31600647    -0.03720
C117        C  0.62312496  0.89721150  0.34220727     0.04890
C118        C  0.67392084  0.91733972  0.33869275     0.02980
H119        H  0.56273318  0.83633326  0.31056529     0.08090
H120        H  0.70268374  0.94742003  0.35454159     0.06920
N121        N  0.23142596  0.36534343  0.28983834    -0.27470
N122        N  0.22014528  0.32194140  0.30451151    -0.35320
C123        C  0.24931754  0.32963342  0.33353548     0.00870
C124        C  0.27996956  0.38026420  0.33809601     0.06900
C125        C  0.26832323  0.40194321  0.30956450    -0.06200
H126        H  0.24852475  0.30016671  0.34978002     0.07570
H127        H  0.28480719  0.44134783  0.30396814     0.08770
Cu128      Cu  0.16510931  0.25273659  0.28712088     0.44170
Cu129      Cu  0.19468828  0.37239062  0.24447626     0.41990
Cu130      Cu  0.09056172  0.25242984  0.21563434     0.43880
N131        N  0.10880492  0.18732548  0.26538607    -0.34850
N132        N  0.08202699  0.18742099  0.23753479    -0.29110
C133        C  0.05026986  0.14022810  0.22753420    -0.05210
C134        C  0.05674964  0.10872685  0.25075847     0.07010
C135        C  0.09415337  0.13995693  0.27454373     0.00810
H136        H  0.02422698  0.12963998  0.20514497     0.08460
H137        H  0.10984947  0.12908164  0.29659148     0.07540
N138        N  0.10686372  0.32012380  0.19375977    -0.36300
N139        N  0.14572788  0.36368063  0.20227705    -0.28480
C140        C  0.14603834  0.39861464  0.18024161    -0.03720
C141        C  0.10543101  0.37578279  0.15668092     0.04890
C142        C  0.08110734  0.32615163  0.16692356     0.02980
H143        H  0.17398833  0.43771753  0.18116675     0.08090
H144        H  0.04663863  0.29608237  0.15654159     0.06920
N145        N  0.36629721  0.22820097  0.20750512    -0.27470
N146        N  0.32272911  0.21791126  0.19373632    -0.35320
C147        C  0.33020046  0.24756391  0.16503961     0.00870
C148        C  0.38089453  0.27744393  0.15989698     0.06900
C149        C  0.40275387  0.26477158  0.18765864    -0.06200
H150        H  0.30063544  0.24754124  0.14940284     0.07570
H151        H  0.44219461  0.28022852  0.19257975     0.08770
Cu152      Cu  0.25421065  0.16293231  0.21251557     0.44170
Cu153      Cu  0.37357792  0.19032236  0.25164575     0.41990
Cu154      Cu  0.25491456  0.08819516  0.28520844     0.43880
N155        N  0.18945865  0.10625115  0.23496252    -0.34850
N156        N  0.18956484  0.07940401  0.26279450    -0.29110
C157        C  0.14221441  0.04724458  0.27236127    -0.05210
C158        C  0.11073250  0.05379777  0.24905256     0.07010
C159        C  0.14212292  0.09141492  0.22557964     0.00810
H160        H  0.13147802  0.02097563  0.29456945     0.08460
H161        H  0.13134125  0.10718754  0.20353242     0.07540
N162        N  0.32445427  0.10418660  0.30408961    -0.36300
N163        N  0.36738350  0.14188192  0.29310749    -0.28480
C164        C  0.40444025  0.14267243  0.31281992    -0.03720
C165        C  0.38394834  0.10302679  0.33714322     0.04890
C166        C  0.33310080  0.07972474  0.33058801     0.02980
H167        H  0.44293373  0.17129876  0.31020251     0.08090
H168        H  0.30410318  0.04743555  0.34442419     0.06920
N169        N  0.86248484  0.63506009  0.20716771    -0.27470
N170        N  0.89330682  0.67771898  0.19088970    -0.35320
C171        C  0.91371686  0.66844873  0.16186979     0.00870
C172        C  0.89482558  0.61778293  0.15957501     0.06900
C173        C  0.86266909  0.59753464  0.18868840    -0.06200
H174        H  0.94081435  0.69667313  0.14397569     0.07570
H175        H  0.84129444  0.55857051  0.19603552     0.08770
Cu176      Cu  0.90904799  0.74808530  0.20743056     0.44170
Cu177      Cu  0.82079390  0.62888424  0.25348359     0.41990
Cu178      Cu  0.83850640  0.74873533  0.28113949     0.43880
N179        N  0.92001842  0.81382687  0.23050588    -0.34850
N180        N  0.89427050  0.81351516  0.25913362    -0.29110
C181        C  0.91007354  0.86052229  0.26981718    -0.05210
C182        C  0.94722025  0.89228964  0.24630589     0.07010
C183        C  0.95257556  0.86135651  0.22162034     0.00810
H184        H  0.89546509  0.87077891  0.29291469     0.08460
H185        H  0.97844625  0.87255967  0.19912934     0.07540
N186        N  0.78620410  0.68215376  0.30325749    -0.36300
N187        N  0.78087487  0.63819348  0.29548083    -0.28480
C188        C  0.74565885  0.60409068  0.31756926    -0.03720
C189        C  0.72785379  0.62791434  0.34030875     0.04890
C190        C  0.75421697  0.67733980  0.32945691     0.02980
H191        H  0.73415076  0.56488490  0.31713848     0.08090
H192        H  0.75082720  0.70837882  0.33880140     0.06920
N193        N  0.86471849  0.22593371  0.70723546    -0.27470
N194        N  0.89100115  0.20912932  0.69028346    -0.35320
C195        C  0.91378387  0.23806404  0.66147375     0.00870
C196        C  0.90287777  0.27624622  0.66044737     0.06900
C197        C  0.87087344  0.26681940  0.68965492    -0.06200
H198        H  0.93592418  0.23072982  0.64256636     0.07570
H199        H  0.85378339  0.28841974  0.69776817     0.08770
Cu200      Cu  0.90062465  0.15119541  0.70766633     0.44170
Cu201      Cu  0.82126933  0.19096272  0.75288001     0.41990
Cu202      Cu  0.83956142  0.09006712  0.78801685     0.43880
N203        N  0.91561043  0.10100554  0.73344628    -0.34850
N204        N  0.89340165  0.07868570  0.76400546    -0.29110
C205        C  0.91129517  0.04921404  0.77492721    -0.05210
C206        C  0.94649826  0.05327426  0.74987077     0.07010
C207        C  0.94827993  0.08644885  0.72392794     0.00810
H208        H  0.89933465  0.02626993  0.79909719     0.08460
H209        H  0.97138837  0.09885637  0.69985320     0.07540
N210        N  0.78626657  0.10624940  0.80672879    -0.36300
N211        N  0.77960520  0.14279971  0.79482448    -0.28480
C212        C  0.74222190  0.14241207  0.81383334    -0.03720
C213        C  0.72427189  0.10339748  0.83860214     0.04890
C214        C  0.75341347  0.08169306  0.83329343     0.02980
H215        H  0.73041204  0.16960008  0.81048214     0.08090
H216        H  0.75106054  0.05024385  0.84786236     0.06920
N217        N  0.14396965  0.77836282  0.70344908    -0.27470
N218        N  0.10819319  0.78568491  0.69058688    -0.35320
C219        C  0.08389286  0.75269239  0.66388382     0.00870
C220        C  0.10533284  0.72332395  0.65965225     0.06900
C221        C  0.14334810  0.74042782  0.68500436    -0.06200
H222        H  0.05308851  0.75052181  0.64849551     0.07570
H223        H  0.16861668  0.72641386  0.68968884     0.08770
Cu224      Cu  0.09229265  0.83942152  0.70889152     0.44170
Cu225      Cu  0.19110456  0.81927984  0.74613641     0.41990
Cu226      Cu  0.15048985  0.89743437  0.79135214     0.43880
N227        N  0.08072447  0.89289211  0.73349392    -0.34850
N228        N  0.10178923  0.91375818  0.76477450    -0.29110
C229        C  0.08707894  0.94621763  0.77459709    -0.05210
C230        C  0.05513082  0.94570519  0.74810562     0.07010
C231        C  0.05191407  0.91148004  0.72240298     0.00810
H232        H  0.09844352  0.96822563  0.79927862     0.08460
H233        H  0.02971147  0.90040659  0.69781937     0.07540
N234        N  0.20820903  0.88788916  0.80927147    -0.36300
N235        N  0.22552592  0.86218162  0.79216339    -0.28480
C236        C  0.26642733  0.86857989  0.80985873    -0.03720
C237        C  0.27532144  0.90008003  0.83942502     0.04890
C238        C  0.23675491  0.91046095  0.83835470     0.02980
H239        H  0.28841782  0.85201077  0.80153915     0.08090
H240        H  0.22887944  0.93217737  0.85728616     0.06920
C241        C  0.97471926  0.02610339  0.74983335     0.02110
C242        C  0.02748439  0.05278205  0.74921526     0.02110
C243        C  0.05414317  0.02652729  0.74898373     0.02110
C244        C  0.02770782  0.97359318  0.74845453     0.02110
C245        C  0.97492775  0.94700315  0.74880490     0.02110
C246        C  0.94861543  0.97337491  0.74989954     0.02110
N247        N  0.36585581  0.14061338  0.70602507    -0.27470
N248        N  0.32221247  0.10227904  0.69687519    -0.35320
C249        C  0.32846206  0.07647156  0.67018971     0.00870
C250        C  0.37827350  0.10027613  0.66079178     0.06900
C251        C  0.40113014  0.14044406  0.68462835    -0.06200
H252        H  0.29846641  0.04244995  0.65905536     0.07570
H253        H  0.44034515  0.16796728  0.68588331     0.08770
Cu254      Cu  0.25408109  0.08708401  0.71716663     0.44170
Cu255      Cu  0.37390256  0.19019073  0.74753970     0.41990
Cu256      Cu  0.25326661  0.16302555  0.78717449     0.43880
N257        N  0.18863369  0.07929530  0.73754865    -0.34850
N258        N  0.18811179  0.10673417  0.76479435    -0.29110
C259        C  0.14060618  0.09235769  0.77322710    -0.05210
C260        C  0.10966751  0.05436966  0.74965342     0.07010
C261        C  0.14159967  0.04732374  0.72726943     0.00810
H262        H  0.12943507  0.10836850  0.79487731     0.08460
H263        H  0.13144488  0.02075270  0.70526634     0.07540
N264        N  0.32232713  0.21770650  0.80545846    -0.36300
N265        N  0.36596631  0.22810860  0.79173501    -0.28480
C266        C  0.40229898  0.26501499  0.81161410    -0.03720
C267        C  0.38024238  0.27764581  0.83928232     0.04890
C268        C  0.32965990  0.24747063  0.83409001     0.02980
H269        H  0.44177580  0.28077105  0.80675869     0.08090
H270        H  0.30003339  0.24733166  0.84969974     0.06920
N271        N  0.22307472  0.36477647  0.70597211    -0.27470
N272        N  0.21046649  0.32191928  0.68981991    -0.35320
C273        C  0.24099016  0.33041499  0.66153163     0.00870
C274        C  0.27479451  0.38104005  0.65954007     0.06900
C275        C  0.26236880  0.40164112  0.68845046    -0.06200
H276        H  0.23925486  0.30148720  0.64401989     0.07570
H277        H  0.28139427  0.43998533  0.69734219     0.08770
Cu278      Cu  0.15566244  0.25248720  0.70786461     0.44170
Cu279      Cu  0.18673147  0.37089850  0.75144953     0.41990
Cu280      Cu  0.09285064  0.25154475  0.78891811     0.43880
N281        N  0.10411755  0.18704272  0.73327597    -0.34850
N282        N  0.08140428  0.18687699  0.76370797    -0.29110
C283        C  0.05092324  0.13949504  0.77406712    -0.05210
C284        C  0.05461481  0.10823602  0.74888718     0.07010
C285        C  0.08869587  0.13967190  0.72336199     0.00810
H286        H  0.02777096  0.12857935  0.79812537     0.08460
H287        H  0.10135617  0.12888175  0.69943049     0.07540
N288        N  0.10615073  0.32012746  0.80775307    -0.36300
N289        N  0.14014687  0.36365319  0.79445868    -0.28480
C290        C  0.13760936  0.40019558  0.81249031    -0.03720
C291        C  0.09971828  0.37843058  0.83787844     0.04890
C292        C  0.08111423  0.32774118  0.83441802     0.02980
H293        H  0.16102158  0.43959606  0.80712634     0.08090
H294        H  0.05196653  0.29837736  0.85039155     0.06920
N295        N  0.63886931  0.86299996  0.70895819    -0.27470
N296        N  0.68199584  0.88978682  0.69225546    -0.35320
C297        C  0.67587259  0.91283311  0.66356755     0.00870
C298        C  0.62672048  0.90142082  0.66236105     0.06900
C299        C  0.60405334  0.86893659  0.69126823    -0.06200
H300        H  0.70534384  0.93551394  0.64482185     0.07570
H301        H  0.56528703  0.85145966  0.69911809     0.08770
Cu302      Cu  0.74935108  0.89953210  0.70988932     0.44170
Cu303      Cu  0.63080886  0.81985093  0.75474074     0.41990
Cu304      Cu  0.75074599  0.84373472  0.79283978     0.43880
N305        N  0.81465724  0.91516659  0.73553143    -0.34850
N306        N  0.81541598  0.89493350  0.76693099    -0.29110
C307        C  0.86299993  0.91257852  0.77714409    -0.05210
C308        C  0.89344482  0.94564794  0.75079230     0.07010
C309        C  0.86159953  0.94644325  0.72482229     0.00810
H310        H  0.87458158  0.90194292  0.80170174     0.08460
H311        H  0.87178549  0.96794148  0.69995323     0.07540
N312        N  0.68169053  0.78917323  0.81101084    -0.36300
N313        N  0.63820941  0.77998650  0.79767991    -0.28480
C314        C  0.60169805  0.74052756  0.81536253    -0.03720
C315        C  0.62349404  0.72387681  0.84044212     0.04890
C316        C  0.67407754  0.75602965  0.83724195     0.02980
H317        H  0.56232070  0.72452134  0.80987223     0.08090
H318        H  0.70344020  0.75579818  0.85300145     0.06920
N319        N  0.86194101  0.63604488  0.79327724    -0.27470
N320        N  0.89837352  0.67989147  0.80417180    -0.35320
C321        C  0.92244620  0.67351343  0.83209340     0.00870
C322        C  0.89943385  0.62328502  0.84017334     0.06900
C323        C  0.86164640  0.60043914  0.81454156    -0.06200
H324        H  0.95495682  0.70356495  0.84490880     0.07570
H325        H  0.83548218  0.56097224  0.81189794     0.08770
Cu326      Cu  0.91321011  0.74770540  0.78329983     0.44170
Cu327      Cu  0.81512605  0.62829067  0.74997727     0.41990
Cu328      Cu  0.83787145  0.74760250  0.71090043     0.43880
N329        N  0.92125822  0.81252910  0.76130428    -0.34850
N330        N  0.89435364  0.81280078  0.73355717    -0.29110
C331        C  0.90927716  0.86031515  0.72458843    -0.05210
C332        C  0.94707170  0.89142895  0.74822431     0.07010
C333        C  0.95339326  0.85968310  0.77126947     0.00810
H334        H  0.89370459  0.87139308  0.70258455     0.08460
H335        H  0.97956651  0.87005731  0.79355140     0.07540
N336        N  0.78342714  0.67777325  0.69309534    -0.36300
N337        N  0.77573020  0.63472357  0.70632111    -0.28480
C338        C  0.73858137  0.59734636  0.68738547    -0.03720
C339        C  0.72218590  0.61803987  0.66131004     0.04890
C340        C  0.75108443  0.66890774  0.66586451     0.02980
H341        H  0.72419454  0.55811465  0.69253445     0.08090
H342        H  0.74912474  0.69747205  0.65024014     0.06920
O343        O  0.56274714  0.00855497  0.46143467    -0.73120
O344        O  0.51180233  0.06278712  0.53909891    -0.74100
O345        O  0.56367024  0.00928564  0.53871733    -0.62720
O346        O  0.51039679  0.06176619  0.46152216    -0.71130
O347        O  0.43920963  0.98976507  0.46203540    -0.70680
O348        O  0.49211202  0.93833454  0.54017403    -0.61940
O349        O  0.43977561  0.99158075  0.53883120    -0.74450
O350        O  0.49177714  0.93620766  0.46301255    -0.73220
Cu351      Cu  0.53969200  0.03808671  0.50014538     1.04560
Cu352      Cu  0.46323733  0.96147464  0.50099037     1.04330
C353        C  0.53547639  0.96384688  0.45026540     0.93080
C354        C  0.46761443  0.03559646  0.55116584     0.92220
C355        C  0.53637812  0.96575322  0.55207261     0.84360
C356        C  0.46604679  0.03395070  0.44979280     0.90630
O357        O  0.55496546  0.05899838  0.96130573    -0.73120
O358        O  0.45043732  0.00539224  0.03897804    -0.74100
O359        O  0.55597807  0.05698597  0.03858486    -0.62720
O360        O  0.44973741  0.00702768  0.96172828    -0.71130
O361        O  0.44873236  0.93525216  0.95966222    -0.70680
O362        O  0.55302490  0.98423681  0.03760648    -0.61940
O363        O  0.44766509  0.93267193  0.03711492    -0.74450
O364        O  0.55460660  0.98711610  0.96073702    -0.73220
Cu365      Cu  0.50273906  0.03456217  0.00018659     1.04560
Cu366      Cu  0.50092833  0.95730537  0.99868741     1.04330
C367        C  0.57168312  0.03158799  0.94913806     0.93080
C368        C  0.43249206  0.96076540  0.05057253     0.92220
C369        C  0.57139929  0.02824719  0.05044504     0.84360
C370        C  0.43256653  0.96342861  0.94813821     0.90630
O371        O  0.44887511  0.43728704  0.45997450    -0.73120
O372        O  0.55463113  0.48924128  0.53780499    -0.74100
O373        O  0.44912146  0.43598432  0.53712835    -0.62720
O374        O  0.55462350  0.49002279  0.46038263    -0.71130
O375        O  0.55448772  0.56146223  0.46225051    -0.70680
O376        O  0.44652098  0.50594863  0.53783768    -0.61940
O377        O  0.55163698  0.55926127  0.53934946    -0.74450
O378        O  0.44914073  0.50916988  0.46038823    -0.73220
Cu379      Cu  0.50180229  0.46062019  0.49874616     1.04560
Cu380      Cu  0.50045511  0.53644857  0.49992396     1.04330
C381        C  0.43271405  0.46527253  0.44788598     0.93080
C382        C  0.56899242  0.53235313  0.55139551     0.92220
C383        C  0.43113123  0.46193966  0.54999305     0.84360
C384        C  0.57151424  0.53459318  0.44923342     0.90630
C385        C  0.64730358  0.54417261  0.57917112    -0.20480
C386        C  0.60622678  0.55164328  0.58110759    -0.07050
C387        C  0.60196041  0.57816788  0.61101693     0.13820
C388        C  0.63999517  0.59844175  0.63720550    -0.20530
C389        C  0.68165622  0.59224148  0.63460412    -0.07050
C390        C  0.68527548  0.56445186  0.60551095     0.13810
C391        C  0.73009841  0.55800443  0.60140982    -0.23880
H392        H  0.65046508  0.52373275  0.55634917     0.15100
H393        H  0.63742679  0.61957283  0.65980506     0.15120
C394        C  0.55690299  0.58414190  0.61612068    -0.23830
H395        H  0.72763359  0.53648929  0.57653562     0.05340
H396        H  0.73307611  0.53765640  0.62522647     0.08560
H397        H  0.76436129  0.59508365  0.59950408     0.08560
H398        H  0.52254495  0.54698435  0.61591680     0.08550
H399        H  0.55492321  0.60762448  0.59416283     0.08550
H400        H  0.55826659  0.60250290  0.64241036     0.05320
C401        C  0.55549711  0.88512184  0.62237453    -0.20480
C402        C  0.60326267  0.91903011  0.63538796    -0.07050
C403        C  0.62712055  0.96882379  0.62269047     0.13820
C404        C  0.60386778  0.98229680  0.59591816    -0.20530
C405        C  0.55694899  0.94799197  0.58152975    -0.07050
C406        C  0.53184293  0.89875660  0.59579123     0.13810
C407        C  0.48045583  0.85994614  0.58339591    -0.23880
H408        H  0.53684911  0.84727507  0.63264523     0.15100
H409        H  0.62292126  0.02038702  0.58617199     0.15120
C410        C  0.67601693  0.00900172  0.63807875    -0.23830
H411        H  0.46710905  0.82386934  0.59765605     0.05340
H412        H  0.48078815  0.85285946  0.55381545     0.08560
H413        H  0.45348566  0.87272356  0.58931617     0.08560
H414        H  0.70709449  0.00415307  0.62831158     0.08550
H415        H  0.67467086  0.00835394  0.66826617     0.08550
H416        H  0.68444006  0.04672151  0.62926019     0.05320
C417        C  0.33996816  0.37762481  0.62307856    -0.20480
C418        C  0.31718484  0.40505345  0.63358008    -0.07050
C419        C  0.33308989  0.45199233  0.61721674     0.13820
C420        C  0.37034084  0.46932221  0.59035189    -0.20530
C421        C  0.39239110  0.44125637  0.57914487    -0.07050
C422        C  0.37697437  0.39464186  0.59625256     0.13810
C423        C  0.39863150  0.36187370  0.58683966    -0.23880
H424        H  0.32844172  0.34203567  0.63595167     0.15100
H425        H  0.38190311  0.50507409  0.57775044     0.15120
C426        C  0.31010901  0.48346492  0.62665345    -0.23830
H427        H  0.38241767  0.32749252  0.60362122     0.05340
H428        H  0.43942996  0.38229057  0.59182987     0.08560
H429        H  0.39058033  0.34989293  0.55797257     0.08560
H430        H  0.32033604  0.49780982  0.65480271     0.08550
H431        H  0.26898649  0.46125042  0.62374401     0.08550
H432        H  0.32371280  0.51641304  0.60854724     0.05320
C433        C  0.40081703  0.05034389  0.57229424    -0.20480
C434        C  0.44743887  0.05513028  0.57890378    -0.07050
C435        C  0.47251641  0.07677869  0.61182702     0.13820
C436        C  0.44924577  0.09159376  0.63791067    -0.20530
C437        C  0.40179296  0.08570863  0.63165892    -0.07050
C438        C  0.37808923  0.06630028  0.59768679     0.13810
C439        C  0.33011368  0.06415418  0.58673776    -0.23880
H440        H  0.38201575  0.03408163  0.54685678     0.15100
H441        H  0.46779478  0.10692468  0.66361499     0.15120
C442        C  0.52273482  0.08244529  0.62011302    -0.23830
H443        H  0.32320653  0.05772812  0.55702991     0.05340
H444        H  0.33175859  0.09998327  0.59317697     0.08560
H445        H  0.29804160  0.03274394  0.60044719     0.08560
H446        H  0.55061312  0.10797625  0.60011972     0.08550
H447        H  0.52042759  0.04551570  0.61878103     0.08550
H448        H  0.53606466  0.09822263  0.64768877     0.05320
C449        C  0.33562383  0.88619582  0.87507626    -0.20480
C450        C  0.31654821  0.91767311  0.86652621    -0.07050
C451        C  0.33813690  0.96522972  0.88336302     0.13820
C452        C  0.37560714  0.97834659  0.90949877    -0.20530
C453        C  0.39354070  0.94625661  0.91916951    -0.07050
C454        C  0.37394112  0.89979218  0.90080616     0.13810
C455        C  0.39296383  0.86417377  0.90753481    -0.23880
H456        H  0.31996150  0.85019015  0.86183997     0.15100
H457        H  0.39088650  0.01440353  0.92261083     0.15120
C458        C  0.32404372  0.00384203  0.87341973    -0.23830
H459        H  0.37422951  0.83067392  0.88981853     0.05340
H460        H  0.38579677  0.85109041  0.93615635     0.08560
H461        H  0.43347855  0.88285551  0.90161770     0.08560
H462        H  0.28813164  0.99466791  0.88621571     0.08550
H463        H  0.32226853  0.00669307  0.84341189     0.08550
H464        H  0.35188510  0.04142597  0.88358172     0.05320
C465        C  0.60230030  0.06703704  0.88796709    -0.20480
C466        C  0.61133641  0.05163282  0.92154801    -0.07050
C467        C  0.65794694  0.05559365  0.92832588     0.13820
C468        C  0.69431575  0.07420639  0.90103281    -0.20530
C469        C  0.68524950  0.08866394  0.86692819    -0.07050
C470        C  0.63844550  0.08499119  0.86030501     0.13810
C471        C  0.62513674  0.09734274  0.82385659    -0.23880
H472        H  0.56626498  0.06376796  0.88308706     0.15100
H473        H  0.73014024  0.07723487  0.90634475     0.15120
C474        C  0.66973999  0.04109710  0.96456687    -0.23830
H475        H  0.58548528  0.08772123  0.82275420     0.05340
H476        H  0.63110158  0.07601366  0.80207276     0.08560
H477        H  0.64802129  0.13783692  0.81856310     0.08560
H478        H  0.64436705  0.00077708  0.96954640     0.08550
H479        H  0.66515012  0.06299768  0.98663285     0.08550
H480        H  0.70857892  0.04820215  0.96565096     0.05320
C481        C  0.65524238  0.55306611  0.36755937    -0.20480
C482        C  0.68861415  0.60482741  0.36914615    -0.07050
C483        C  0.68412545  0.63215669  0.39869365     0.13820
C484        C  0.64545958  0.60764674  0.42386223    -0.20530
C485        C  0.61192410  0.55641181  0.42178360    -0.07050
C486        C  0.61773154  0.52837157  0.39375576     0.13810
C487        C  0.58445651  0.47266270  0.39079844    -0.23880
H488        H  0.65816212  0.53143185  0.34556089     0.15100
H489        H  0.64171771  0.62887764  0.44588130     0.15120
C490        C  0.71986104  0.68670257  0.40549096    -0.23830
H491        H  0.59310980  0.45732974  0.36631959     0.05340
H492        H  0.54492857  0.46298874  0.38894404     0.08560
H493        H  0.58972272  0.45426076  0.41492494     0.08560
H494        H  0.71184257  0.70961502  0.38653596     0.08550
H495        H  0.75895911  0.69489965  0.40323598     0.08550
H496        H  0.71566061  0.69814982  0.43331729     0.05320
C497        C  0.47445738  0.07656643  0.39093575    -0.20480
C498        C  0.44565299  0.05301124  0.42175383    -0.07050
C499        C  0.39816747  0.04832992  0.42534415     0.13820
C500        C  0.38044353  0.06669392  0.39782000    -0.20530
C501        C  0.40833100  0.08904015  0.36623479    -0.07050
C502        C  0.45638877  0.09425655  0.36291135     0.13810
C503        C  0.48843149  0.11647959  0.32973383    -0.23880
H504        H  0.51097421  0.08014326  0.38844080     0.15100
H505        H  0.34420921  0.06344095  0.40115073     0.15120
C506        C  0.36655742  0.02546563  0.45866742    -0.23830
H507        H  0.52176274  0.11187915  0.33028754     0.05340
H508        H  0.50227284  0.15705314  0.32871061     0.08560
H509        H  0.46698279  0.09785286  0.30475943     0.08560
H510        H  0.38775774  0.04598374  0.48319400     0.08550
H511        H  0.35590957  0.98564392  0.46089088     0.08550
H512        H  0.33164247  0.02724051  0.45777984     0.05320
C513        C  0.34486946  0.41308584  0.42995106    -0.20480
C514        C  0.39395867  0.44634099  0.41966183    -0.07050
C515        C  0.40505715  0.46106699  0.38298053     0.13820
C516        C  0.36681461  0.44002227  0.35688736    -0.20530
C517        C  0.31788240  0.40495135  0.36690464    -0.07050
C518        C  0.30643560  0.39266047  0.40410573     0.13810
C519        C  0.25365901  0.35982481  0.41703930    -0.23880
H520        H  0.33661360  0.40321591  0.45840926     0.15100
H521        H  0.37536124  0.44993392  0.32847508     0.15120
C522        C  0.45733293  0.49809338  0.37138155    -0.23830
H523        H  0.25137413  0.35841511  0.44720877     0.05340
H524        H  0.23876438  0.32110363  0.40733152     0.08560
H525        H  0.22977258  0.37462737  0.40699194     0.08560
H526        H  0.48262937  0.48367834  0.37829646     0.08550
H527        H  0.47010022  0.53408515  0.38565776     0.08550
H528        H  0.45974453  0.50510942  0.34162495     0.05320
C529        C  0.59288396  0.89494606  0.40472108    -0.20480
C530        C  0.59742431  0.91194868  0.36884554    -0.07050
C531        C  0.57991436  0.94469734  0.35947030     0.13820
C532        C  0.55917421  0.96073254  0.38657194    -0.20530
C533        C  0.55503288  0.94403362  0.42250447    -0.07050
C534        C  0.57150505  0.91041422  0.43171132     0.13810
C535        C  0.56775809  0.89204758  0.47016477    -0.23880
H536        H  0.60662716  0.86994621  0.41166572     0.15100
H537        H  0.54642450  0.98660049  0.37981056     0.15120
C538        C  0.58406031  0.96341762  0.32111747    -0.23830
H539        H  0.58297834  0.86644469  0.47276163     0.05340
H540        H  0.52814151  0.87160389  0.47876901     0.08560
H541        H  0.58904018  0.92414849  0.48875479     0.08560
H542        H  0.56289429  0.93145842  0.30240680     0.08550
H543        H  0.62377054  0.98388392  0.31273325     0.08550
H544        H  0.56886641  0.98904902  0.31853245     0.05320
C545        C  0.32489563  0.87839243  0.11468785    -0.20480
C546        C  0.32154707  0.91473413  0.13527767    -0.07050
C547        C  0.35657529  0.96558577  0.12954448     0.13820
C548        C  0.39234970  0.97882784  0.10209991    -0.20530
C549        C  0.39468859  0.94277641  0.08022301    -0.07050
C550        C  0.36088044  0.89158745  0.08716955     0.13810
C551        C  0.36114608  0.85052739  0.06528938    -0.23880
H552        H  0.29824603  0.83942186  0.11953342     0.15100
H553        H  0.41886203  0.01795557  0.09778389     0.15120
C554        C  0.35783257  0.00614868  0.15307708    -0.23830
H555        H  0.33077459  0.81313090  0.07365549     0.05340
H556        H  0.39690851  0.85108172  0.06938589     0.08560
H557        H  0.35583623  0.85530691  0.03599321     0.08560
H558        H  0.36036692  0.99805155  0.18217161     0.08550
H559        H  0.32405429  0.00907824  0.14860948     0.08550
H560        H  0.39045055  0.04318494  0.14676316     0.05320
C561        C  0.67089105  0.03904736  0.11740039    -0.20480
C562        C  0.68388334  0.08400532  0.13545214    -0.07050
C563        C  0.65891150  0.11014883  0.12541100     0.13820
C564        C  0.62264969  0.09078582  0.09775218    -0.20530
C565        C  0.61030833  0.04614533  0.07946345    -0.07050
C566        C  0.63539850  0.02015596  0.08943902     0.13810
C567        C  0.62643632  0.97303068  0.07058356    -0.23880
H568        H  0.68867096  0.01796956  0.12515548     0.15100
H569        H  0.60359919  0.11087669  0.09046370     0.15120
C570        C  0.67017334  0.15878914  0.14271418    -0.23830
H571        H  0.65133147  0.95961754  0.08099503     0.05340
H572        H  0.63379791  0.97999138  0.04099954     0.08560
H573        H  0.58758019  0.94274187  0.07523482     0.08560
H574        H  0.71078429  0.18570807  0.14174850     0.08550
H575        H  0.65634344  0.15220976  0.17109499     0.08550
H576        H  0.65110656  0.17619167  0.12840761     0.05320
C577        C  0.90444349  0.55711289  0.07283754    -0.20480
C578        C  0.94684281  0.55329961  0.08024480    -0.07050
C579        C  0.96989883  0.56769663  0.11472240     0.13820
C580        C  0.95074490  0.58672113  0.14077569    -0.20530
C581        C  0.90951814  0.59214097  0.13290223    -0.07050
C582        C  0.88589390  0.57710530  0.09871157     0.13810
C583        C  0.84182016  0.58307980  0.08942296    -0.23880
H584        H  0.88679765  0.54586928  0.04636548     0.15100
H585        H  0.96872956  0.59861400  0.16709432     0.15120
C586        C  0.01436859  0.56261796  0.12417962    -0.23830
H587        H  0.82775518  0.56948600  0.06152844     0.05340
H588        H  0.85263572  0.62304482  0.09097432     0.08560
H589        H  0.81113831  0.56153991  0.10895326     0.08560
H590        H  0.04600327  0.58713389  0.10626050     0.08550
H591        H  0.00494326  0.52324749  0.12058121     0.08550
H592        H  0.02645681  0.57358578  0.15279456     0.05320
C593        C  0.04884247  0.39874955  0.07137751    -0.20480
C594        C  0.06016565  0.44811268  0.07671665    -0.07050
C595        C  0.08929396  0.47466606  0.10733357     0.13820
C596        C  0.10350214  0.44994580  0.13253341    -0.20530
C597        C  0.09048871  0.39980093  0.12793094    -0.07050
C598        C  0.06426030  0.37451435  0.09592607     0.13810
C599        C  0.05371831  0.32289015  0.08596816    -0.23880
H600        H  0.02787160  0.37888112  0.04739462     0.15100
H601        H  0.12420023  0.47006750  0.15649543     0.15120
C602        C  0.10521877  0.52828717  0.11548573    -0.23830
H603        H  0.04411600  0.31476442  0.05668928     0.05340
H604        H  0.02116607  0.29458876  0.10139706     0.08560
H605        H  0.08707648  0.31917765  0.09087332     0.08560
H606        H  0.09190771  0.54549672  0.09553353     0.08550
H607        H  0.14652888  0.55062723  0.11613082     0.08550
H608        H  0.09073107  0.53080077  0.14255583     0.05320
C609        C  0.11969143  0.44107461  0.88654476    -0.20480
C610        C  0.08369622  0.40375492  0.86415803    -0.07050
C611        C  0.03322574  0.39075761  0.86770201     0.13820
C612        C  0.01975977  0.41359713  0.89482881    -0.20530
C613        C  0.05534078  0.44948251  0.91838335    -0.07050
C614        C  0.10624744  0.46408081  0.91374296     0.13810
C615        C  0.14640674  0.50222639  0.93807191    -0.23880
H616        H  0.15841520  0.45122514  0.88339485     0.15100
H617        H  0.98094091  0.40324908  0.89767324     0.15120
C618        C  0.99354716  0.35418882  0.84224770    -0.23830
H619        H  0.18355604  0.50701778  0.93157174     0.05340
H620        H  0.13799014  0.49031422  0.96691505     0.08560
H621        H  0.14893449  0.53899547  0.93450312     0.08560
H622        H  0.98824852  0.31637900  0.84604640     0.08550
H623        H  0.00433751  0.36622918  0.81364656     0.08550
H624        H  0.95698988  0.35164143  0.84723727     0.05320
C625        C  0.94219076  0.59741334  0.93060874    -0.20480
C626        C  0.94475633  0.55473581  0.92211135    -0.07050
C627        C  0.92963149  0.53273127  0.88736866     0.13820
C628        C  0.91413488  0.55541403  0.86132841    -0.20530
C629        C  0.91327223  0.59937022  0.86936019    -0.07050
C630        C  0.92585238  0.61961029  0.90498215     0.13810
C631        C  0.92008828  0.66303625  0.91704475    -0.23880
H632        H  0.95286746  0.61334065  0.95764986     0.15100
H633        H  0.90384964  0.53945984  0.83429192     0.15120
C634        C  0.93162918  0.48655873  0.87732535    -0.23830
H635        H  0.92443185  0.66854819  0.94697406     0.05340
H636        H  0.88240662  0.65624759  0.90978248     0.08560
H637        H  0.94901492  0.69806619  0.90451061     0.08560
H638        H  0.90625236  0.45515389  0.89514948     0.08550
H639        H  0.97023717  0.49353868  0.88058842     0.08550
H640        H  0.91998043  0.47521626  0.84869052     0.05320
C641        C  0.41541481  0.34236880  0.06809471    -0.20480
C642        C  0.45102363  0.39078827  0.07839102    -0.07050
C643        C  0.46577888  0.40152063  0.11510348     0.13820
C644        C  0.44318857  0.36344413  0.14113445    -0.20530
C645        C  0.40600008  0.31520979  0.13110848    -0.07050
C646        C  0.39299755  0.30418300  0.09392977     0.13810
C647        C  0.35705979  0.25205482  0.08098610    -0.23880
H648        H  0.40496430  0.33452905  0.03966574     0.15100
H649        H  0.45351699  0.37167935  0.16953687     0.15120
C650        C  0.50420070  0.45339661  0.12680695    -0.23830
H651        H  0.35525358  0.24972438  0.05081425     0.05340
H652        H  0.31894096  0.23998564  0.09079495     0.08560
H653        H  0.36918164  0.22592663  0.09091746     0.08560
H654        H  0.49126339  0.47997331  0.11982905     0.08550
H655        H  0.53996563  0.46483881  0.11266867     0.08550
H656        H  0.51108940  0.45557859  0.15658733     0.05320
C657        C  0.44016036  0.36454046  0.85800573    -0.20480
C658        C  0.40473252  0.31570289  0.86804898    -0.07050
C659        C  0.39216628  0.30441369  0.90522732     0.13820
C660        C  0.41321684  0.34281424  0.93109598    -0.20530
C661        C  0.44715091  0.39174048  0.92081328    -0.07050
C662        C  0.46157096  0.40281391  0.88408079     0.13810
C663        C  0.49856032  0.45516498  0.87242554    -0.23880
H664        H  0.45009868  0.37298583  0.82958869     0.15100
H665        H  0.40340471  0.33464081  0.95957147     0.15120
C666        C  0.35832517  0.25178644  0.91810100    -0.23830
H667        H  0.50522493  0.45756908  0.84262194     0.05340
H668        H  0.53471047  0.46784337  0.88641133     0.08560
H669        H  0.48436588  0.48066911  0.87960005     0.08560
H670        H  0.37249463  0.22724587  0.90830083     0.08550
H671        H  0.31988883  0.23766697  0.90804550     0.08550
H672        H  0.35644779  0.24951301  0.94826732     0.05320
C673        C  0.53022273  0.62226302  0.09744662    -0.20480
C674        C  0.56138247  0.60695643  0.08096901    -0.07050
C675        C  0.61145878  0.62867460  0.09320143     0.13820
C676        C  0.62830923  0.66442595  0.12101030    -0.20530
C677        C  0.59768074  0.68071931  0.13688247    -0.07050
C678        C  0.54745168  0.65864873  0.12506726     0.13810
C679        C  0.51158091  0.67340762  0.14036368    -0.23880
H680        H  0.49182408  0.60572218  0.08860670     0.15100
H681        H  0.66636089  0.67999287  0.13034411     0.15120
C682        C  0.64837689  0.61563466  0.07716239    -0.23830
H683        H  0.47589918  0.65609995  0.12502838     0.05340
H684        H  0.52783419  0.71443328  0.13884559     0.08560
H685        H  0.50223094  0.66022729  0.16881342     0.08560
H686        H  0.65287360  0.62413678  0.04760937     0.08550
H687        H  0.63561922  0.57562499  0.08181300     0.08550
H688        H  0.68585178  0.63736259  0.08976862     0.05320
C689        C  0.59005380  0.60792108  0.89577001    -0.20480
C690        C  0.55485583  0.60725118  0.92016855    -0.07050
C691        C  0.53979774  0.64343239  0.91640486     0.13820
C692        C  0.56182877  0.68014703  0.88933226    -0.20530
C693        C  0.59855442  0.68186106  0.86617096    -0.07050
C694        C  0.61188329  0.64448515  0.86876577     0.13810
C695        C  0.64777555  0.64178115  0.84243269    -0.23880
H696        H  0.60065761  0.57952914  0.89781811     0.15100
H697        H  0.55143922  0.70866323  0.88690974     0.15120
C698        C  0.50210863  0.64503957  0.94143912    -0.23830
H699        H  0.65065330  0.60780742  0.84674287     0.05340
H700        H  0.68560648  0.67431813  0.84593899     0.08560
H701        H  0.63485236  0.64077681  0.81409975     0.08560
H702        H  0.51470124  0.64834153  0.97011552     0.08550
H703        H  0.46536031  0.61077904  0.93798204     0.08550
H704        H  0.49694475  0.67734504  0.93552600     0.05320
C705        C  0.97535307  0.40016494  0.38986830    -0.20480
C706        C  0.94579100  0.39261451  0.42069859    -0.07050
C707        C  0.89967899  0.34791709  0.42420907     0.13820
C708        C  0.88449219  0.31160758  0.39676800    -0.20530
C709        C  0.91459313  0.31890409  0.36634672    -0.07050
C710        C  0.96013214  0.36391869  0.36249024     0.13810
C711        C  0.99227950  0.37405276  0.32928904    -0.23880
H712        H  0.01056498  0.43460346  0.38724627     0.15100
H713        H  0.84975679  0.27671283  0.39957178     0.15120
C714        C  0.86771864  0.33729861  0.45759224    -0.23830
H715        H  0.02582198  0.41179913  0.33017614     0.05340
H716        H  0.97062562  0.37160576  0.30451899     0.08560
H717        H  0.00498684  0.34639573  0.32736336     0.08560
H718        H  0.85484901  0.36480208  0.45985936     0.08550
H719        H  0.88944675  0.33944035  0.48225509     0.08550
H720        H  0.83420860  0.29954470  0.45656472     0.05320
C721        C  0.88784533  0.33414974  0.62275447    -0.20480
C722        C  0.92054681  0.31748707  0.63352941    -0.07050
C723        C  0.96934906  0.34117011  0.61887784     0.13820
C724        C  0.98270020  0.37822174  0.59243571    -0.20530
C725        C  0.94945932  0.39360493  0.58032009    -0.07050
C726        C  0.90154101  0.37197979  0.59662792     0.13810
C727        C  0.86437192  0.38814624  0.58714483    -0.23880
H728        H  0.85085683  0.31685489  0.63448416     0.15100
H729        H  0.01986962  0.39521726  0.58106684     0.15120
C730        C  0.00887170  0.32977116  0.63169334    -0.23830
H731        H  0.82956436  0.36776841  0.60325398     0.05340
H732        H  0.85396810  0.38058312  0.55797489     0.08560
H733        H  0.88049251  0.42847964  0.59307381     0.08560
H734        H  0.00220296  0.29395554  0.62010735     0.08550
H735        H  0.00970455  0.32894999  0.66187293     0.08550
H736        H  0.04658627  0.35855825  0.62254140     0.05320
C737        C  0.09618377  0.65526492  0.57193758    -0.20480
C738        C  0.05564772  0.60797200  0.57950115    -0.07050
C739        C  0.03339871  0.59771780  0.61429302     0.13820
C740        C  0.05144221  0.63574449  0.64054768    -0.20530
C741        C  0.09101978  0.68344375  0.63259937    -0.07050
C742        C  0.11383289  0.69339476  0.59807898     0.13810
C743        C  0.15591699  0.74453945  0.58864186    -0.23880
H744        H  0.11305674  0.66274181  0.54516748     0.15100
H745        H  0.03415384  0.62854305  0.66715679     0.15120
C746        C  0.99124671  0.54655865  0.62385278    -0.23830
H747        H  0.16934389  0.74605695  0.56040658     0.05340
H748        H  0.18762141  0.75498904  0.60752328     0.08560
H749        H  0.14319386  0.77218180  0.59105304     0.08560
H750        H  0.00326998  0.51855322  0.61997449     0.08550
H751        H  0.95854391  0.53678770  0.60621031     0.08550
H752        H  0.97936502  0.54461515  0.65259024     0.05320
C753        C  0.08278272  0.64017696  0.35973846    -0.20480
C754        C  0.08859669  0.68678987  0.36911172    -0.07050
C755        C  0.07924544  0.69537528  0.40539739     0.13820
C756        C  0.06152039  0.65630179  0.43063382    -0.20530
C757        C  0.05430261  0.60948756  0.42090823    -0.07050
C758        C  0.06575546  0.60135054  0.38530348     0.13810
C759        C  0.05838753  0.55131785  0.37401031    -0.23880
H760        H  0.09041406  0.63375439  0.33209655     0.15100
H761        H  0.05373123  0.66241963  0.45832985     0.15120
C762        C  0.09007103  0.74604712  0.41839061    -0.23830
H763        H  0.06797952  0.55094736  0.34494745     0.05340
H764        H  0.01881905  0.52222802  0.37795943     0.08200
H765        H  0.08249802  0.54197098  0.39065404     0.08560
H766        H  0.06363144  0.75609362  0.40618522     0.08550
H767        H  0.12886854  0.77447723  0.41125202     0.08550
H768        H  0.08619782  0.74696474  0.44838060     0.05320
loop_ 
_geom_bond_atom_site_label_1 
_geom_bond_atom_site_label_2 
_geom_bond_distance 
_geom_bond_site_symmetry_2 
_ccdc_geom_bond_type 
O1           Cu9   2.008       .  S
O1           C11   1.277       .  A
O2           Cu9   2.002       .  S
O2           C12   1.277   1_455  A
O3           Cu9   2.001       .  S
O3           C13   1.276       .  A
O4           Cu9   2.006       .  S
O4           C14   1.280   1_455  A
O5          Cu10   2.007       .  S
O5           C14   1.276       .  A
O6          Cu10   2.014       .  S
O6           C13   1.278   1_655  A
O7          Cu10   2.007       .  S
O7           C12   1.277       .  A
O8          Cu10   2.002       .  S
O8           C11   1.277   1_655  A
Cu9         Cu10   2.373   1_455  S
C11         C738   1.469       .  S
C12         C706   1.473       .  S
C13         C757   1.470       .  S
C14         C725   1.495       .  S
O15         Cu23   1.995   1_554  S
O15          C25   1.275       .  A
O16         Cu23   2.000       .  S
O16          C26   1.275       .  A
O17         Cu23   2.006       .  S
O17          C27   1.279       .  A
O18         Cu23   2.010   1_554  S
O18          C28   1.277       .  A
O19         Cu24   2.001       .  S
O19          C28   1.276       .  A
O20         Cu24   2.007   1_556  S
O20          C27   1.276       .  A
O21         Cu24   2.012   1_556  S
O21          C26   1.278       .  A
O22         Cu24   2.018       .  S
O22          C25   1.280       .  A
Cu23        Cu24   2.372   1_556  S
C25         C674   1.495       .  S
C26         C661   1.467       .  S
C27         C690   1.486       .  S
C28         C642   1.467       .  S
O29         Cu37   2.011   1_554  S
O29          C39   1.278   1_455  A
O30         Cu37   2.012       .  S
O30          C40   1.278       .  A
O31         Cu37   2.009       .  S
O31          C41   1.278   1_455  A
O32         Cu37   2.009   1_554  S
O32          C42   1.276       .  A
O33         Cu38   2.011   1_554  S
O33          C42   1.280   1_655  A
O34         Cu38   2.005       .  S
O34          C41   1.276       .  A
O35         Cu38   2.000       .  S
O35          C40   1.278   1_655  A
O36         Cu38   2.008   1_554  S
O36          C39   1.277       .  A
Cu37        Cu38   2.373   1_455  S
C39         C578   1.473       .  S
C40         C613   1.484       .  S
C41         C626   1.472       .  S
C42         C594   1.483       .  S
N43          N44   1.320       .  A
N43          C47   1.346       .  A
N43         Cu51   2.077       .  S
N44          C45   1.340       .  A
N44         Cu50   2.069       .  S
C45          C46   1.390       .  A
C45          H48   1.081       .  S
C46         C562   1.498       .  S
C46          C47   1.393       .  A
C47          H49   1.077       .  S
Cu50         N53   2.069       .  S
Cu51         N61   2.077       .  S
Cu52         N54   2.068       .  S
Cu52         N60   2.069       .  S
N53          N54   1.320       .  A
N53          C57   1.344       .  A
N54          C55   1.345       .  A
C55          C56   1.385       .  A
C55          H58   1.082       .  S
C56          C92   1.487       .  S
C56          C57   1.384       .  A
C57          H59   1.082       .  S
N60          N61   1.324       .  A
N60          C64   1.343       .  A
N61          C62   1.347       .  A
C62          C63   1.382       .  A
C62          H65   1.082       .  S
C63         C709   1.471       .  S
C63          C64   1.379       .  A
C64          H66   1.082       .  S
N67          N68   1.322       .  A
N67          C71   1.349       .  A
N67         Cu75   2.088       .  S
N68          C69   1.340       .  A
N68         Cu74   2.063       .  S
C69          C70   1.381       .  A
C69          H72   1.080       .  S
C70         C754   1.482       .  S
C70          C71   1.388       .  A
C71          H73   1.082       .  S
Cu74         N77   2.063       .  S
Cu75         N85   2.088       .  S
Cu76         N78   2.068       .  S
Cu76         N84   2.069       .  S
N77          N78   1.319       .  A
N77          C81   1.343       .  A
N78          C79   1.345       .  A
C79          C80   1.386       .  A
C79          H82   1.082       .  S
C80          C95   1.487       .  S
C80          C81   1.384       .  A
C81          H83   1.082       .  S
N84          N85   1.324       .  A
N84          C88   1.341       .  A
N85          C86   1.349       .  A
C86          C87   1.386       .  A
C86          H89   1.082       .  S
C87         C546   1.480       .  S
C87          C88   1.380       .  A
C88          H90   1.081       .  S
C91         C110   1.490       .  S
C91          C92   1.415   1_565  A
C91          C96   1.418       .  A
C92          C93   1.419   1_655  A
C93         C134   1.488       .  S
C93          C94   1.420       .  A
C94         C158   1.491       .  S
C94          C95   1.419   1_545  A
C95          C96   1.419   1_455  A
C96         C182   1.488       .  S
N97          N98   1.320       .  A
N97         C101   1.347       .  A
N97        Cu105   2.076       .  S
N98          C99   1.340       .  A
N98        Cu104   2.072       .  S
C99         C100   1.389       .  A
C99         H102   1.081       .  S
C100        C677   1.496       .  S
C100        C101   1.392       .  A
C101        H103   1.077       .  S
Cu104       N107   2.071       .  S
Cu105       N115   2.076       .  S
Cu106       N108   2.076       .  S
Cu106       N114   2.076       .  S
N107        N108   1.321       .  A
N107        C111   1.345       .  A
N108        C109   1.345       .  A
C109        C110   1.386       .  A
C109        H112   1.082       .  S
C110        C111   1.385       .  A
C111        H113   1.082       .  S
N114        N115   1.324       .  A
N114        C118   1.344       .  A
N115        C116   1.347       .  A
C116        C117   1.381       .  A
C116        H119   1.082       .  S
C117        C530   1.471       .  S
C117        C118   1.380       .  A
C118        H120   1.082       .  S
N121        N122   1.324       .  A
N121        C125   1.349       .  A
N121       Cu129   2.090       .  S
N122        C123   1.340       .  A
N122       Cu128   2.063       .  S
C123        C124   1.379       .  A
C123        H126   1.081       .  S
C124        C517   1.478       .  S
C124        C125   1.387       .  A
C125        H127   1.082       .  S
Cu128       N131   2.062       .  S
Cu129       N139   2.090       .  S
Cu130       N132   2.060       .  S
Cu130       N138   2.060       .  S
N131        N132   1.318       .  A
N131        C135   1.344       .  A
N132        C133   1.342       .  A
C133        C134   1.385       .  A
C133        H136   1.082       .  S
C134        C135   1.386       .  A
C135        H137   1.082       .  S
N138        N139   1.321       .  A
N138        C142   1.339       .  A
N139        C140   1.348       .  A
C140        C141   1.393       .  A
C140        H143   1.082       .  S
C141        C597   1.493       .  S
C141        C142   1.384       .  A
C142        H144   1.077       .  S
N145        N146   1.323       .  A
N145        C149   1.348       .  A
N145       Cu153   2.080       .  S
N146        C147   1.341       .  A
N146       Cu152   2.068       .  S
C147        C148   1.381       .  A
C147        H150   1.081       .  S
C148        C645   1.479       .  S
C148        C149   1.385       .  A
C149        H151   1.082       .  S
Cu152       N155   2.068       .  S
Cu153       N163   2.080       .  S
Cu154       N156   2.074       .  S
Cu154       N162   2.074       .  S
N155        N156   1.320       .  A
N155        C159   1.344       .  A
N156        C157   1.345       .  A
C157        C158   1.387       .  A
C157        H160   1.082       .  S
C158        C159   1.385       .  A
C159        H161   1.082       .  S
N162        N163   1.321       .  A
N162        C166   1.341       .  A
N163        C164   1.347       .  A
C164        C165   1.391       .  A
C164        H167   1.078       .  S
C165        C501   1.493       .  S
C165        C166   1.387       .  A
C166        H168   1.082       .  S
N169        N170   1.326       .  A
N169        C173   1.348       .  A
N169       Cu177   2.088       .  S
N170        C171   1.342       .  A
N170       Cu176   2.072       .  S
C171        C172   1.376       .  A
C171        H174   1.082       .  S
C172        C581   1.469       .  S
C172        C173   1.382       .  A
C173        H175   1.082       .  S
Cu176       N179   2.070       .  S
Cu177       N187   2.087       .  S
Cu178       N180   2.051       .  S
Cu178       N186   2.051       .  S
N179        N180   1.318       .  A
N179        C183   1.345       .  A
N180        C181   1.342       .  A
C181        C182   1.383       .  A
C181        H184   1.082       .  S
C182        C183   1.388       .  A
C183        H185   1.082       .  S
N186        N187   1.318       .  A
N186        C190   1.336       .  A
N187        C188   1.348       .  A
C188        C189   1.398       .  A
C188        H191   1.081       .  S
C189        C482   1.499       .  S
C189        C190   1.386       .  A
C190        H192   1.074       .  S
N193        N194   1.321       .  A
N193        C197   1.348       .  A
N193       Cu201   2.086       .  S
N194        C195   1.339       .  A
N194       Cu200   2.062       .  S
C195        C196   1.383       .  A
C195        H198   1.078       .  S
C196        C722   1.488       .  S
C196        C197   1.391       .  A
C197        H199   1.082       .  S
Cu200       N203   2.062       .  S
Cu201       N211   2.086       .  S
Cu202       N204   2.068       .  S
Cu202       N210   2.069       .  S
N203        N204   1.319       .  A
N203        C207   1.344       .  A
N204        C205   1.344       .  A
C205        C206   1.385       .  A
C205        H208   1.082       .  S
C206        C241   1.486       .  S
C206        C207   1.383       .  A
C207        H209   1.082       .  S
N210        N211   1.323       .  A
N210        C214   1.341       .  A
N211        C212   1.348       .  A
C212        C213   1.389       .  A
C212        H215   1.080       .  S
C213        C469   1.485       .  S
C213        C214   1.383       .  A
C214        H216   1.082       .  S
N217        N218   1.325       .  A
N217        C221   1.348       .  A
N217       Cu225   2.084       .  S
N218        C219   1.343       .  A
N218       Cu224   2.069       .  S
C219        C220   1.377       .  A
C219        H222   1.082       .  S
C220        C741   1.470       .  S
C220        C221   1.382       .  A
C221        H223   1.082       .  S
Cu224       N227   2.069       .  S
Cu225       N235   2.084       .  S
Cu226       N228   2.061       .  S
Cu226       N234   2.061       .  S
N227        N228   1.320       .  A
N227        C231   1.345       .  A
N228        C229   1.344       .  A
C229        C230   1.382       .  A
C229        H232   1.082       .  S
C230        C244   1.484       .  S
C230        C231   1.385       .  A
C231        H233   1.082       .  S
N234        N235   1.320       .  A
N234        C238   1.339       .  A
N235        C236   1.348       .  A
C236        C237   1.392       .  A
C236        H239   1.082       .  S
C237        C450   1.491       .  S
C237        C238   1.384       .  A
C238        H240   1.077       .  S
C241        C242   1.417   1_655  A
C241        C246   1.415   1_545  A
C242        C284   1.488       .  S
C242        C243   1.419       .  A
C243        C260   1.491       .  S
C243        C244   1.420   1_545  A
C244        C245   1.417   1_455  A
C245        C332   1.491       .  S
C245        C246   1.414       .  A
C246        C308   1.482       .  S
N247        N248   1.322       .  A
N247        C251   1.349       .  A
N247       Cu255   2.088       .  S
N248        C249   1.339       .  A
N248       Cu254   2.060       .  S
C249        C250   1.382       .  A
C249        H252   1.078       .  S
C250        C437   1.487       .  S
C250        C251   1.391       .  A
C251        H253   1.082       .  S
Cu254       N257   2.061       .  S
Cu255       N265   2.089       .  S
Cu256       N258   2.067       .  S
Cu256       N264   2.068       .  S
N257        N258   1.318       .  A
N257        C261   1.343       .  A
N258        C259   1.344       .  A
C259        C260   1.387       .  A
C259        H262   1.082       .  S
C260        C261   1.386       .  A
C261        H263   1.082       .  S
N264        N265   1.324       .  A
N264        C268   1.341       .  A
N265        C266   1.349       .  A
C266        C267   1.386       .  A
C266        H269   1.082       .  S
C267        C658   1.479       .  S
C267        C268   1.379       .  A
C268        H270   1.081       .  S
N271        N272   1.322       .  A
N271        C275   1.347       .  A
N271       Cu279   2.077       .  S
N272        C273   1.341       .  A
N272       Cu278   2.075       .  S
C273        C274   1.386       .  A
C273        H276   1.082       .  S
C274        C418   1.489       .  S
C274        C275   1.389       .  A
C275        H277   1.079       .  S
Cu278       N281   2.075       .  S
Cu279       N289   2.077       .  S
Cu280       N282   2.069       .  S
Cu280       N288   2.070       .  S
N281        N282   1.321       .  A
N281        C285   1.346       .  A
N282        C283   1.345       .  A
C283        C284   1.384       .  A
C283        H286   1.082       .  S
C284        C285   1.386       .  A
C285        H287   1.082       .  S
N288        N289   1.323       .  A
N288        C292   1.342       .  A
N289        C290   1.347       .  A
C290        C291   1.384       .  A
C290        H293   1.082       .  S
C291        C610   1.477       .  S
C291        C292   1.381       .  A
C292        H294   1.081       .  S
N295        N296   1.321       .  A
N295        C299   1.348       .  A
N295       Cu303   2.086       .  S
N296        C297   1.339       .  A
N296       Cu302   2.058       .  S
C297        C298   1.382       .  A
C297        H300   1.079       .  S
C298        C402   1.485       .  S
C298        C299   1.390       .  A
C299        H301   1.082       .  S
Cu302       N305   2.058       .  S
Cu303       N313   2.087       .  S
Cu304       N306   2.066       .  S
Cu304       N312   2.067       .  S
N305        N306   1.320       .  A
N305        C309   1.343       .  A
N306        C307   1.344       .  A
C307        C308   1.384       .  A
C307        H310   1.082       .  S
C308        C309   1.381       .  A
C309        H311   1.082       .  S
N312        N313   1.324       .  A
N312        C316   1.341       .  A
N313        C314   1.348       .  A
C314        C315   1.386       .  A
C314        H317   1.082       .  S
C315        C693   1.478       .  S
C315        C316   1.380       .  A
C316        H318   1.081       .  S
N319        N320   1.321       .  A
N319        C323   1.349       .  A
N319       Cu327   2.084       .  S
N320        C321   1.340       .  A
N320       Cu326   2.062       .  S
C321        C322   1.382       .  A
C321        H324   1.079       .  S
C322        C629   1.484       .  S
C322        C323   1.389       .  A
C323        H325   1.082       .  S
Cu326       N329   2.061       .  S
Cu327       N337   2.085       .  S
Cu328       N330   2.073       .  S
Cu328       N336   2.074       .  S
N329        N330   1.319       .  A
N329        C333   1.343       .  A
N330        C331   1.345       .  A
C331        C332   1.387       .  A
C331        H334   1.082       .  S
C332        C333   1.384       .  A
C333        H335   1.082       .  S
N336        N337   1.325       .  A
N336        C340   1.343       .  A
N337        C338   1.348       .  A
C338        C339   1.383       .  A
C338        H341   1.082       .  S
C339        C389   1.474       .  S
C339        C340   1.379       .  A
C340        H342   1.082       .  S
O343       Cu351   2.006       .  S
O343        C353   1.277   1_545  A
O344       Cu351   2.011       .  S
O344        C354   1.277       .  A
O345       Cu351   2.005       .  S
O345        C355   1.279   1_545  A
O346       Cu351   2.011       .  S
O346        C356   1.278       .  A
O347       Cu352   2.006       .  S
O347        C356   1.277   1_565  A
O348       Cu352   2.007       .  S
O348        C355   1.276       .  A
O349       Cu352   2.002       .  S
O349        C354   1.277   1_565  A
O350       Cu352   2.008       .  S
O350        C353   1.277       .  A
Cu351      Cu352   2.373   1_545  S
C353        C533   1.468       .  S
C354        C434   1.474       .  S
C355        C405   1.494       .  S
C356        C498   1.477       .  S
O357       Cu365   2.004   1_556  S
O357        C367   1.276       .  A
O358       Cu365   2.005       .  S
O358        C368   1.279   1_545  A
O359       Cu365   2.012       .  S
O359        C369   1.279       .  A
O360       Cu365   2.005   1_556  S
O360        C370   1.279   1_545  A
O361       Cu366   2.008       .  S
O361        C370   1.276       .  A
O362       Cu366   1.999   1_554  S
O362        C369   1.276   1_565  A
O363       Cu366   2.012   1_554  S
O363        C368   1.277       .  A
O364       Cu366   2.009       .  S
O364        C367   1.278   1_565  A
Cu365      Cu366   2.366   1_544  S
C367        C466   1.471       .  S
C368        C549   1.491       .  S
C369        C565   1.493       .  S
C370        C453   1.495       .  S
O371       Cu379   2.013       .  S
O371        C381   1.278       .  A
O372       Cu379   2.018       .  S
O372        C382   1.279       .  A
O373       Cu379   2.000       .  S
O373        C383   1.276       .  A
O374       Cu379   2.003       .  S
O374        C384   1.276       .  A
O375       Cu380   2.008       .  S
O375        C384   1.280       .  A
O376       Cu380   2.014       .  S
O376        C383   1.279       .  A
O377       Cu380   1.997       .  S
O377        C382   1.276       .  A
O378       Cu380   2.002       .  S
O378        C381   1.275       .  A
Cu379      Cu380   2.370       .  S
C381        C514   1.468       .  S
C382        C386   1.480       .  S
C383        C421   1.495       .  S
C384        C485   1.483       .  S
C385        C386   1.405       .  A
C385        C390   1.405       .  A
C385        H392   1.084       .  S
C386        C387   1.417       .  A
C387        C388   1.403       .  A
C387        C394   1.509       .  S
C388        C389   1.400       .  A
C388        H393   1.084       .  S
C389        C390   1.411       .  A
C390        C391   1.506       .  S
C391        H395   1.111       .  S
C391        H396   1.110       .  S
C391        H397   1.111       .  S
C394        H398   1.111       .  S
C394        H399   1.109       .  S
C394        H400   1.111       .  S
C401        C402   1.403       .  A
C401        C406   1.407       .  A
C401        H408   1.084       .  S
C402        C403   1.416       .  A
C403        C404   1.401       .  A
C403        C410   1.509   1_565  S
C404        C405   1.406       .  A
C404        H409   1.084   1_565  S
C405        C406   1.422       .  A
C406        C407   1.508       .  S
C407        H411   1.111       .  S
C407        H412   1.110       .  S
C407        H413   1.110       .  S
C410        H414   1.106       .  S
C410        H415   1.110       .  S
C410        H416   1.111       .  S
C417        C418   1.403       .  A
C417        C422   1.401       .  A
C417        H424   1.084       .  S
C418        C419   1.416       .  A
C419        C420   1.407       .  A
C419        C426   1.507       .  S
C420        C421   1.409       .  A
C420        H425   1.083       .  S
C421        C422   1.422       .  A
C422        C423   1.510       .  S
C423        H427   1.111       .  S
C423        H428   1.110       .  S
C423        H429   1.110       .  S
C426        H430   1.107       .  S
C426        H431   1.110       .  S
C426        H432   1.111       .  S
C433        C434   1.398       .  A
C433        C438   1.400       .  A
C433        H440   1.083       .  S
C434        C435   1.412       .  A
C435        C436   1.407       .  A
C435        C442   1.507       .  S
C436        C437   1.407       .  A
C436        H441   1.084       .  S
C437        C438   1.420       .  A
C438        C439   1.509       .  S
C439        H443   1.111       .  S
C439        H444   1.110       .  S
C439        H445   1.106       .  S
C442        H446   1.110       .  S
C442        H447   1.111       .  S
C442        H448   1.111       .  S
C449        C450   1.405       .  A
C449        C454   1.407       .  A
C449        H456   1.083       .  S
C450        C451   1.419       .  A
C451        C452   1.401       .  A
C451        C458   1.509   1_565  S
C452        C453   1.405       .  A
C452        H457   1.083   1_565  S
C453        C454   1.421       .  A
C454        C455   1.508       .  S
C455        H459   1.111       .  S
C455        H460   1.110       .  S
C455        H461   1.111       .  S
C458        H462   1.107   1_545  S
C458        H463   1.110       .  S
C458        H464   1.111       .  S
C465        C466   1.401       .  A
C465        C470   1.406       .  A
C465        H472   1.084       .  S
C466        C467   1.409       .  A
C467        C468   1.401       .  A
C467        C474   1.508       .  S
C468        C469   1.406       .  A
C468        H473   1.084       .  S
C469        C470   1.418       .  A
C470        C471   1.506       .  S
C471        H475   1.111       .  S
C471        H476   1.110       .  S
C471        H477   1.107       .  S
C474        H478   1.109       .  S
C474        H479   1.111       .  S
C474        H480   1.111       .  S
C481        C482   1.409       .  A
C481        C486   1.407       .  A
C481        H488   1.082       .  S
C482        C483   1.425       .  A
C483        C484   1.401       .  A
C483        C490   1.508       .  S
C484        C485   1.399       .  A
C484        H489   1.084       .  S
C485        C486   1.415       .  A
C486        C487   1.508       .  S
C487        H491   1.111       .  S
C487        H492   1.108       .  S
C487        H493   1.110       .  S
C490        H494   1.108       .  S
C490        H495   1.110       .  S
C490        H496   1.111       .  S
C497        C498   1.402       .  A
C497        C502   1.408       .  A
C497        H504   1.084       .  S
C498        C499   1.411       .  A
C499        C500   1.400       .  A
C499        C506   1.507       .  S
C500        C501   1.407       .  A
C500        H505   1.083       .  S
C501        C502   1.421       .  A
C502        C503   1.506       .  S
C503        H507   1.111       .  S
C503        H508   1.107       .  S
C503        H509   1.110       .  S
C506        H510   1.109       .  S
C506        H511   1.109   1_545  S
C506        H512   1.111       .  S
C513        C514   1.398       .  A
C513        C518   1.402       .  A
C513        H520   1.084       .  S
C514        C515   1.410       .  A
C515        C516   1.405       .  A
C515        C522   1.506       .  S
C516        C517   1.404       .  A
C516        H521   1.084       .  S
C517        C518   1.417       .  A
C518        C519   1.509       .  S
C519        H523   1.111       .  S
C519        H524   1.107       .  S
C519        H525   1.110       .  S
C522        H526   1.108       .  S
C522        H527   1.110       .  S
C522        H528   1.111       .  S
C529        C530   1.401       .  A
C529        C534   1.403       .  A
C529        H536   1.084       .  S
C530        C531   1.411       .  A
C531        C532   1.404       .  A
C531        C538   1.506       .  S
C532        C533   1.401       .  A
C532        H537   1.084       .  S
C533        C534   1.411       .  A
C534        C535   1.507       .  S
C535        H539   1.111       .  S
C535        H540   1.110       .  S
C535        H541   1.111       .  S
C538        H542   1.110       .  S
C538        H543   1.110       .  S
C538        H544   1.111       .  S
C545        C546   1.402       .  A
C545        C550   1.407       .  A
C545        H552   1.084       .  S
C546        C547   1.413       .  A
C547        C548   1.401       .  A
C547        C554   1.509   1_565  S
C548        C549   1.406       .  A
C548        H553   1.084   1_565  S
C549        C550   1.421       .  A
C550        C551   1.507       .  S
C551        H555   1.111       .  S
C551        H556   1.110       .  S
C551        H557   1.110       .  S
C554        H558   1.110   1_545  S
C554        H559   1.107       .  S
C554        H560   1.111       .  S
C561        C562   1.407       .  A
C561        C566   1.401       .  A
C561        H568   1.082       .  S
C562        C563   1.420       .  A
C563        C564   1.407       .  A
C563        C570   1.506       .  S
C564        C565   1.407       .  A
C564        H569   1.084       .  S
C565        C566   1.418       .  A
C566        C567   1.510   1_545  S
C567        H571   1.111       .  S
C567        H572   1.110       .  S
C567        H573   1.110       .  S
C570        H574   1.110       .  S
C570        H575   1.108       .  S
C570        H576   1.111       .  S
C577        C578   1.403       .  A
C577        C582   1.405       .  A
C577        H584   1.084       .  S
C578        C579   1.412       .  A
C579        C580   1.402       .  A
C579        C586   1.503   1_655  S
C580        C581   1.399       .  A
C580        H585   1.084       .  S
C581        C582   1.410       .  A
C582        C583   1.506       .  S
C583        H587   1.111       .  S
C583        H588   1.110       .  S
C583        H589   1.110       .  S
C586        H590   1.109       .  S
C586        H591   1.111       .  S
C586        H592   1.111       .  S
C593        C594   1.401       .  A
C593        C598   1.402       .  A
C593        H600   1.085       .  S
C594        C595   1.419       .  A
C595        C596   1.405       .  A
C595        C602   1.507       .  S
C596        C597   1.406       .  A
C596        H601   1.084       .  S
C597        C598   1.421       .  A
C598        C599   1.508       .  S
C599        H603   1.111       .  S
C599        H604   1.107       .  S
C599        H605   1.110       .  S
C602        H606   1.101       .  S
C602        H607   1.110       .  S
C602        H608   1.110       .  S
C609        C610   1.402       .  A
C609        C614   1.406       .  A
C609        H616   1.084       .  S
C610        C611   1.413       .  A
C611        C612   1.401       .  A
C611        C618   1.508   1_455  S
C612        C613   1.405       .  A
C612        H617   1.084   1_455  S
C613        C614   1.418       .  A
C614        C615   1.507       .  S
C615        H619   1.111       .  S
C615        H620   1.111       .  S
C615        H621   1.110       .  S
C618        H622   1.107       .  S
C618        H623   1.110   1_655  S
C618        H624   1.111       .  S
C625        C626   1.398       .  A
C625        C630   1.402       .  A
C625        H632   1.085       .  S
C626        C627   1.412       .  A
C627        C628   1.406       .  A
C627        C634   1.507       .  S
C628        C629   1.406       .  A
C628        H633   1.084       .  S
C629        C630   1.419       .  A
C630        C631   1.509       .  S
C631        H635   1.111       .  S
C631        H636   1.110       .  S
C631        H637   1.106       .  S
C634        H638   1.110       .  S
C634        H639   1.111       .  S
C634        H640   1.111       .  S
C641        C642   1.398       .  A
C641        C646   1.402       .  A
C641        H648   1.085       .  S
C642        C643   1.410       .  A
C643        C644   1.405       .  A
C643        C650   1.507       .  S
C644        C645   1.405       .  A
C644        H649   1.084       .  S
C645        C646   1.417       .  A
C646        C647   1.508       .  S
C647        H651   1.111       .  S
C647        H652   1.107       .  S
C647        H653   1.110       .  S
C650        H654   1.111       .  S
C650        H655   1.110       .  S
C650        H656   1.111       .  S
C657        C658   1.404       .  A
C657        C662   1.405       .  A
C657        H664   1.084       .  S
C658        C659   1.417       .  A
C659        C660   1.402       .  A
C659        C666   1.508       .  S
C660        C661   1.398       .  A
C660        H665   1.085       .  S
C661        C662   1.410       .  A
C662        C663   1.507       .  S
C663        H667   1.111       .  S
C663        H668   1.110       .  S
C663        H669   1.111       .  S
C666        H670   1.110       .  S
C666        H671   1.107       .  S
C666        H672   1.111       .  S
C673        C674   1.408       .  A
C673        C678   1.408       .  A
C673        H680   1.084       .  S
C674        C675   1.421       .  A
C675        C676   1.401       .  A
C675        C682   1.510       .  S
C676        C677   1.405       .  A
C676        H681   1.082       .  S
C677        C678   1.419       .  A
C678        C679   1.506       .  S
C679        H683   1.111       .  S
C679        H684   1.110       .  S
C679        H685   1.108       .  S
C682        H686   1.110       .  S
C682        H687   1.110       .  S
C682        H688   1.111       .  S
C689        C690   1.405       .  A
C689        C694   1.401       .  A
C689        H696   1.084       .  S
C690        C691   1.419       .  A
C691        C692   1.406       .  A
C691        C698   1.508       .  S
C692        C693   1.401       .  A
C692        H697   1.084       .  S
C693        C694   1.413       .  A
C694        C695   1.508       .  S
C695        H699   1.111       .  S
C695        H700   1.107       .  S
C695        H701   1.110       .  S
C698        H702   1.110       .  S
C698        H703   1.110       .  S
C698        H704   1.111       .  S
C705        C706   1.402       .  A
C705        C710   1.401       .  A
C705        H712   1.084   1_655  S
C706        C707   1.414       .  A
C707        C708   1.404       .  A
C707        C714   1.507       .  S
C708        C709   1.401       .  A
C708        H713   1.084       .  S
C709        C710   1.411       .  A
C710        C711   1.507       .  S
C711        H715   1.111   1_655  S
C711        H716   1.110       .  S
C711        H717   1.109   1_655  S
C714        H718   1.109       .  S
C714        H719   1.111       .  S
C714        H720   1.111       .  S
C721        C722   1.404       .  A
C721        C726   1.408       .  A
C721        H728   1.084       .  S
C722        C723   1.417       .  A
C723        C724   1.400       .  A
C723        C730   1.509   1_655  S
C724        C725   1.406       .  A
C724        H729   1.083   1_655  S
C725        C726   1.422       .  A
C726        C727   1.508       .  S
C727        H731   1.111       .  S
C727        H732   1.110       .  S
C727        H733   1.111       .  S
C730        H734   1.107       .  S
C730        H735   1.110       .  S
C730        H736   1.111       .  S
C737        C738   1.401       .  A
C737        C742   1.403       .  A
C737        H744   1.084       .  S
C738        C739   1.412       .  A
C739        C740   1.404       .  A
C739        C746   1.508   1_455  S
C740        C741   1.401       .  A
C740        H745   1.084       .  S
C741        C742   1.410       .  A
C742        C743   1.506       .  S
C743        H747   1.111       .  S
C743        H748   1.110       .  S
C743        H749   1.110       .  S
C746        H750   1.111   1_655  S
C746        H751   1.110       .  S
C746        H752   1.111       .  S
C753        C754   1.405       .  A
C753        C758   1.406       .  A
C753        H760   1.084       .  S
C754        C755   1.418       .  A
C755        C756   1.402       .  A
C755        C762   1.509       .  S
C756        C757   1.398       .  A
C756        H761   1.085       .  S
C757        C758   1.411       .  A
C758        C759   1.507       .  S
C759        H763   1.111       .  S
C759        H764   1.111       .  S
C759        H765   1.110       .  S
C762        H766   1.106       .  S
C762        H767   1.110       .  S
C762        H768   1.111       .  S
