geometry optimzed in LAMMPS
_audit_creation_date              2020-11-30 
_audit_creation_method            'lammps2cif' 
_symmetry_space_group_name_H-M    'P1' 
_symmetry_Int_Tables_number       1 
_symmetry_cell_setting            triclinic 
loop_ 
_symmetry_equiv_pos_as_xyz 
  x,y,z 
_cell_length_a                    30.27988796 
_cell_length_b                    30.5589592830527 
_cell_length_c                    53.24736776355017 
_cell_angle_alpha                 89.9990570566762 
_cell_angle_beta                  90.22235529457052 
_cell_angle_gamma                 88.26423318698625 
loop_ 
_atom_site_label 
_atom_site_type_symbol 
_atom_site_fract_x 
_atom_site_fract_y 
_atom_site_fract_z 
_atom_site_charge 
In1        In  0.56494840  0.58330632  0.60882471     1.36900
C2          C  0.54330777  0.54998876  0.56476794     0.78400
O3          O  0.60829389  0.52277146  0.61123326    -0.60100
O4          O  0.57517123  0.54384436  0.64416002    -0.51000
C5          C  0.62457934  0.64527002  0.60411798     0.71000
O6          O  0.63232079  0.60988509  0.61566534    -0.45800
C7          C  0.49172657  0.61954075  0.62965582     0.75800
O8          O  0.56632758  0.58348698  0.56693148    -0.57700
O9          O  0.53014335  0.62509408  0.63804766    -0.47800
O10         O  0.53169022  0.53345384  0.58531738    -0.54100
C11         C  0.60123022  0.51602868  0.63417233     0.85900
O12         O  0.58666940  0.64824261  0.59434006    -0.56000
O13         O  0.49107649  0.59475821  0.61085161    -0.59300
In14       In  0.91584270  0.93628634  0.61571588     1.36900
C15         C  0.94441396  0.96486636  0.57153258     0.78400
O16         O  0.86734171  0.99309233  0.61595081    -0.60100
O17         O  0.90966732  0.98542606  0.64741305    -0.51000
C18         C  0.85340727  0.87716568  0.61581313     0.71000
O19         O  0.87660207  0.88567106  0.59690421    -0.45800
C20         C  0.98283372  0.88905519  0.63565506     0.75800
O21         O  0.90682525  0.94962028  0.57470985    -0.57700
O22         O  0.97931465  0.93007694  0.63799911    -0.47800
O23         O  0.96805867  0.96479323  0.59103878    -0.54100
C24         C  0.87886683  0.00746854  0.63699202     0.85900
O25         O  0.86219373  0.89937590  0.63513377    -0.56000
O26         O  0.95216203  0.87255009  0.62317677    -0.59300
In27       In  0.43336450  0.41703440  0.34897706     1.36900
C28         C  0.45903193  0.43193319  0.39593249     0.78400
O29         O  0.45890416  0.37685280  0.31647168    -0.60100
O30         O  0.50507692  0.39889339  0.34287444    -0.51000
C31         C  0.36896385  0.35911022  0.35036501     0.71000
O32         O  0.40704659  0.35124631  0.35913500    -0.45800
C33         C  0.41001677  0.49551972  0.32903299     0.75800
O34         O  0.42032964  0.42089454  0.39037668    -0.57700
O35         O  0.42366761  0.46346495  0.31607774    -0.47800
O36         O  0.48441328  0.43481041  0.37734658    -0.54100
C37         C  0.49883526  0.37748623  0.32301993     0.85900
O38         O  0.36393573  0.39713574  0.34141758    -0.56000
O39         O  0.40894548  0.48748060  0.35213302    -0.59300
In40       In  0.06904114  0.07774555  0.35334317     1.36900
C41         C  0.04784810  0.05263130  0.39968330     0.78400
O42         O  0.01174566  0.12595311  0.35010799    -0.60100
O43         O  0.02177961  0.08131292  0.32026746    -0.51000
C44         C  0.12282312  0.14424772  0.34934269     0.71000
O45         O  0.10085302  0.13677421  0.36882027    -0.45800
C46         C  0.11663734  0.00836605  0.33695436     0.75800
O47         O  0.08038740  0.07551387  0.39471824    -0.57700
O48         O  0.07527732  0.01188570  0.33434222    -0.47800
O49         O  0.02637297  0.04103682  0.38058981    -0.54100
C50         C  0.99936117  0.11336856  0.32880786     0.85900
O51         O  0.11600090  0.11815611  0.33143108    -0.56000
O52         O  0.13318252  0.04026366  0.34813296    -0.59300
C53         C  0.28143049  0.76898536  0.24029561    -0.01700
C54         C  0.23018179  0.73778063  0.73387863    -0.01700
C55         C  0.76170105  0.26521275  0.21943114    -0.01700
In56       In  0.42510610  0.05325415  0.84612387     1.36900
C57         C  0.45107166  0.02761245  0.89174855     0.78400
O58         O  0.38935315  0.99022731  0.84763117    -0.60100
O59         O  0.41238997  0.01036393  0.81242732    -0.51000
C60         C  0.35766751  0.11180057  0.84264231     0.71000
O61         O  0.37750360  0.10263356  0.86293402    -0.45800
C62         C  0.49598624  0.09368972  0.82888380     0.75800
O63         O  0.41509175  0.04802969  0.88753843    -0.57700
O64         O  0.49109897  0.05312333  0.82655043    -0.47800
O65         O  0.47417372  0.02066546  0.87241368    -0.54100
C66         C  0.39177725  0.98205424  0.82456233     0.85900
O67         O  0.37268140  0.09079364  0.82399902    -0.56000
O68         O  0.46461045  0.11327883  0.84007231    -0.59300
In69       In  0.05963079  0.41772104  0.85262693     1.36900
C70         C  0.04433800  0.43914894  0.90043700     0.78400
O71         O  0.11186307  0.45503970  0.83342255    -0.60100
O72         O  0.04920586  0.48627267  0.83772319    -0.51000
C73         C  0.11928629  0.35111113  0.84888089     0.71000
O74         O  0.12350796  0.38241118  0.86403547    -0.45800
C75         C  0.98421244  0.39409442  0.83135631     0.75800
O76         O  0.03912173  0.40115990  0.89201493    -0.57700
O77         O  0.01492669  0.41069726  0.81898501    -0.47800
O78         O  0.05844785  0.46566903  0.88450099    -0.54100
C79         C  0.08819915  0.48922535  0.82986189     0.85900
O80         O  0.08495692  0.35435713  0.83556821    -0.56000
O81         O  0.99172099  0.39126327  0.85454998    -0.59300
In82       In  0.96655924  0.58501591  0.12108015     1.36900
C83         C  0.98535142  0.55083707  0.07596058     0.78400
O84         O  0.02946723  0.62214767  0.12050545    -0.60100
O85         O  0.01100640  0.59323433  0.15461151    -0.51000
C86         C  0.91092852  0.65387198  0.12535215     0.71000
O87         O  0.93928084  0.65059220  0.10815025    -0.45800
C88         C  0.92682273  0.51572295  0.13976768     0.75800
O89         O  0.95378511  0.57788394  0.07967638    -0.57700
O90         O  0.96635110  0.52431772  0.14483240    -0.47800
O91         O  0.00732338  0.54190664  0.09547031    -0.54100
C92         C  0.03911909  0.61540488  0.14319840     0.85900
O93         O  0.91205790  0.62254201  0.14073030    -0.56000
O94         O  0.90773233  0.54294698  0.12527152    -0.59300
In95       In  0.59078286  0.93160181  0.11125808     1.36900
C96         C  0.55982659  0.94619311  0.06514104     0.78400
O97         O  0.54794500  0.87520349  0.12116053    -0.60100
O98         O  0.52606228  0.93834768  0.13201981    -0.51000
C99         C  0.66032666  0.87680194  0.11550378     0.71000
O100        O  0.64771346  0.89357423  0.09503780    -0.45800
C101        C  0.62777542  0.00369306  0.12886248     0.75800
O102        O  0.58185699  0.91221498  0.07112478    -0.57700
O103        O  0.60352263  0.98009536  0.14209446    -0.47800
O104        O  0.55352341  0.97269931  0.08302151    -0.54100
C105        C  0.51824490  0.89806101  0.13177636     0.85900
O106        O  0.63748410  0.88874845  0.13422012    -0.56000
O107        O  0.63252944  0.99052315  0.10663105    -0.59300
C108        C  0.73041486  0.25836444  0.73428630    -0.01700
C109        C  0.85030277  0.76487344  0.12110987    -0.11100
C110        C  0.80716183  0.75290676  0.12685540     0.11500
C111        C  0.79855990  0.70890946  0.13295234    -0.02900
C112        C  0.83397378  0.67813323  0.13320389    -0.05600
C113        C  0.87696950  0.68965591  0.12665419    -0.16400
C114        C  0.88565739  0.73387100  0.12088920     0.02500
C115        C  0.77095372  0.78632716  0.12422986     0.12500
C116        C  0.75198988  0.69428358  0.13839930     0.63100
H117        H  0.82795240  0.64418421  0.13748748     0.12500
C118        C  0.93189720  0.74847283  0.11485414     0.55200
H119        H  0.85578611  0.79864134  0.11613499     0.08300
C120        C  0.75988730  0.81642579  0.14353348    -0.05500
C121        C  0.72347032  0.84548906  0.13989930    -0.06200
C122        C  0.69876163  0.84578105  0.11748786    -0.15800
C123        C  0.71075722  0.81615796  0.09791061    -0.01400
C124        C  0.74710938  0.78721691  0.10165864    -0.09000
C125        C  0.78665118  0.81796276  0.16768242     0.65300
H126        H  0.71423396  0.86860908  0.15451521     0.10800
C127        C  0.68469295  0.81367411  0.07350453     0.63700
H128        H  0.75701281  0.76430400  0.08705925     0.08100
F129        F  0.93384881  0.79363319  0.11358363    -0.19300
F130        F  0.94508402  0.73157560  0.09190557    -0.15600
F131        F  0.96109307  0.73399471  0.13332860    -0.19100
F132        F  0.72573844  0.69999362  0.11729170    -0.22400
F133        F  0.73391093  0.71857235  0.15790600    -0.23900
F134        F  0.75140349  0.65053015  0.14509773    -0.17900
F135        F  0.68974897  0.85154034  0.05972843    -0.20400
F136        F  0.64040519  0.80840683  0.07863917    -0.21600
F137        F  0.69885611  0.77871273  0.05875045    -0.18700
F138        F  0.76957933  0.84893873  0.18426525    -0.18800
F139        F  0.82965793  0.82854688  0.16231098    -0.22700
F140        F  0.78683314  0.77768097  0.17948161    -0.24300
C141        C  0.88613057  0.32520107  0.81382939    -0.11100
C142        C  0.87056423  0.34723641  0.79240417     0.11500
C143        C  0.88947444  0.38701027  0.78507304    -0.02900
C144        C  0.92629492  0.40161795  0.79855266    -0.05600
C145        C  0.94335650  0.37844636  0.81941794    -0.16400
C146        C  0.92253168  0.33988178  0.82751210     0.02500
C147        C  0.83577599  0.32624120  0.77741150     0.12500
C148        C  0.87043509  0.41397607  0.76338874     0.63100
H149        H  0.94207008  0.43138452  0.79291479     0.12500
C150        C  0.93996870  0.31269979  0.84949255     0.55200
H151        H  0.87027506  0.29531209  0.81917956     0.08300
C152        C  0.84625964  0.29435486  0.75933440    -0.05500
C153        C  0.81178616  0.27567415  0.74588348    -0.06200
C154        C  0.76585204  0.28419841  0.75085593    -0.15800
C155        C  0.75638909  0.32020303  0.76826302    -0.01400
C156        C  0.79185709  0.33835013  0.78172089    -0.09000
C157        C  0.89403814  0.27956458  0.75447713     0.65300
H158        H  0.82212611  0.25435068  0.73089807     0.10800
C159        C  0.71124473  0.34319168  0.77272342     0.63700
H160        H  0.78604741  0.36339630  0.79579323     0.08100
F161        F  0.91701109  0.27456516  0.85249945    -0.19300
F162        F  0.93595791  0.33642989  0.87151270    -0.15600
F163        F  0.98384708  0.30107919  0.84549177    -0.19100
F164        F  0.82756885  0.42740535  0.76894128    -0.22400
F165        F  0.87023502  0.38941064  0.74159959    -0.23900
F166        F  0.89458825  0.45092672  0.75894865    -0.17900
F167        F  0.71386937  0.37795514  0.78930982    -0.20400
F168        F  0.68162816  0.31555393  0.78317609    -0.21600
F169        F  0.69450382  0.36097886  0.75083411    -0.18700
F170        F  0.89747680  0.24836008  0.73567602    -0.18800
F171        F  0.91218477  0.26136744  0.77607819    -0.22700
F172        F  0.91866049  0.31481037  0.74738615    -0.24300
C173        C  0.99380400  0.45077873  0.96570214    -0.11100
C174        C  0.01985766  0.48357921  0.97584973     0.11500
C175        C  0.05486761  0.50042839  0.96164077    -0.02900
C176        C  0.06179875  0.48453227  0.93718584    -0.05600
C177        C  0.03531310  0.45221672  0.92673926    -0.16400
C178        C  0.00035624  0.43514830  0.94109711     0.02500
C179        C  0.00952653  0.49993453  0.00143260     0.12500
C180        C  0.08503494  0.53470215  0.97234328     0.63100
H181        H  0.08846472  0.49703421  0.92603224     0.12500
C182        C  0.96877904  0.40228757  0.93027749     0.55200
H183        H  0.96769056  0.43805036  0.97719116     0.08300
C184        C  0.97461008  0.53063199  0.00595157    -0.05500
C185        C  0.96791895  0.54585174  0.03058729    -0.06200
C186        C  0.99506921  0.53170853  0.05072414    -0.15800
C187        C  0.02985423  0.50029604  0.04603692    -0.01400
C188        C  0.03586612  0.48463263  0.02139400    -0.09000
C189        C  0.94504528  0.54777781  0.98476357     0.65300
H190        H  0.94135349  0.56947154  0.03420067     0.10800
C191        C  0.06093924  0.48322373  0.06652284     0.63700
H192        H  0.06181729  0.46055857  0.01728903     0.08100
F193        F  0.93431339  0.39428847  0.94650177    -0.19300
F194        F  0.99103806  0.36292441  0.92577760    -0.15600
F195        F  0.95071376  0.41827638  0.90807235    -0.19100
F196        F  0.10969477  0.51679945  0.99189864    -0.22400
F197        F  0.06032653  0.57023628  0.98113000    -0.23900
F198        F  0.11402137  0.54975889  0.95448879    -0.17900
F199        F  0.03711137  0.46271239  0.08495926    -0.20400
F200        F  0.08365105  0.51752040  0.07683391    -0.21600
F201        F  0.09193992  0.45303409  0.05742836    -0.18700
F202        F  0.91386709  0.57839963  0.99316649    -0.18800
F203        F  0.92274480  0.51370873  0.97397433    -0.22700
F204        F  0.97032828  0.56745106  0.96665100    -0.24300
C205        C  0.63327932  0.18341527  0.75408648    -0.11100
C206        C  0.63468521  0.18727722  0.78012853     0.11500
C207        C  0.66951894  0.20926549  0.79158136    -0.02900
C208        C  0.69943983  0.23103199  0.77624373    -0.05600
C209        C  0.69684740  0.23111034  0.74959526    -0.16400
C210        C  0.66423152  0.20315081  0.73831294     0.02500
C211        C  0.60018075  0.16532035  0.79474149     0.12500
C212        C  0.67574062  0.20867321  0.81991774     0.63100
H213        H  0.72567620  0.24757846  0.78554927     0.12500
C214        C  0.66175065  0.19018247  0.71049399     0.55200
H215        H  0.60773063  0.16336828  0.74628012     0.08300
C216        C  0.55786051  0.18502856  0.79848961    -0.05500
C217        C  0.52548160  0.16073422  0.81051797    -0.06200
C218        C  0.53378533  0.11734446  0.81834792    -0.15800
C219        C  0.57682589  0.09822983  0.81539720    -0.01400
C220        C  0.60918843  0.12263129  0.80329599    -0.09000
C221        C  0.54645983  0.23092334  0.78905193     0.65300
H222        H  0.49261224  0.17501110  0.81297564     0.10800
C223        C  0.58916959  0.05287100  0.82527536     0.63700
H224        H  0.64174977  0.10824295  0.79989449     0.08100
F225        F  0.66581442  0.22523394  0.69459142    -0.19300
F226        F  0.62169718  0.17198080  0.70451399    -0.15600
F227        F  0.69422436  0.15885752  0.70527662    -0.19100
F228        F  0.68427552  0.16617028  0.82785052    -0.22400
F229        F  0.63800221  0.22486164  0.83161261    -0.23900
F230        F  0.71072074  0.23373065  0.82749895    -0.17900
F231        F  0.56791485  0.02156960  0.81138769    -0.20400
F232        F  0.57720729  0.04967894  0.85024268    -0.21600
F233        F  0.63421771  0.04397677  0.82374056    -0.18700
F234        F  0.50454438  0.24498225  0.79636669    -0.18800
F235        F  0.54791060  0.23155387  0.76312053    -0.22700
F236        F  0.57626423  0.26017853  0.79845850    -0.24300
C237        C  0.45295628  0.99257824  0.96053664    -0.11100
C238        C  0.49847933  0.98940083  0.96499585     0.11500
C239        C  0.52842591  0.99613209  0.94517040    -0.02900
C240        C  0.51141351  0.00837969  0.92151707    -0.05600
C241        C  0.46570844  0.01354879  0.91718042    -0.16400
C242        C  0.43574982  0.00461684  0.93690430     0.02500
C243        C  0.51364332  0.97878212  0.99077558     0.12500
C244        C  0.57799329  0.99012163  0.94901389     0.63100
H245        H  0.53388608  0.01447540  0.90622568     0.12500
C246        C  0.38594868  0.00679404  0.93319663     0.55200
H247        H  0.43096317  0.98611339  0.97600882     0.08300
C248        C  0.51644501  0.01133790  0.00951134    -0.05500
C249        C  0.53217650  0.99909364  0.03338749    -0.06200
C250        C  0.54350861  0.95534131  0.03930946    -0.15800
C251        C  0.53822497  0.92232329  0.02078254    -0.01400
C252        C  0.52369707  0.93496326  0.99665520    -0.09000
C253        C  0.50191702  0.05857381  0.00446048     0.65300
H254        H  0.53549276  0.02387584  0.04774291     0.10800
C255        C  0.54650505  0.87396409  0.02632463     0.63700
H256        H  0.51993172  0.91068597  0.98204192     0.08100
F257        F  0.37175678  0.04969892  0.92930881    -0.19300
F258        F  0.36384337  0.99126160  0.95393597    -0.15600
F259        F  0.37450327  0.98147575  0.91277644    -0.19100
F260        F  0.58807733  0.94715454  0.95549038    -0.22400
F261        F  0.59206106  0.01732820  0.96798118    -0.23900
F262        F  0.60128381  0.99974130  0.92748087    -0.17900
F263        F  0.53351012  0.84778672  0.00656417    -0.20400
F264        F  0.52272503  0.86208608  0.04726062    -0.21600
F265        F  0.59107275  0.86562743  0.03049870    -0.18700
F266        F  0.50921377  0.08525289  0.02498806    -0.18800
F267        F  0.45721168  0.06068157  0.99906902    -0.22700
F268        F  0.52490142  0.07492367  0.98432831    -0.24300
C269        C  0.27195435  0.19896631  0.82068669    -0.11100
C270        C  0.25208724  0.21030394  0.84361084     0.11500
C271        C  0.26399332  0.18664220  0.86554638    -0.02900
C272        C  0.29864086  0.15502448  0.86423413    -0.05600
C273        C  0.32000494  0.14448405  0.84149587    -0.16400
C274        C  0.30523022  0.16572031  0.81904284     0.02500
C275        C  0.21863915  0.24702096  0.84412179     0.12500
C276        C  0.23932260  0.19396796  0.89005504     0.63100
H277        H  0.30885881  0.13766143  0.88110374     0.12500
C278        C  0.32414912  0.15381543  0.79347513     0.55200
H279        H  0.26107363  0.21664228  0.80404199     0.08300
C280        C  0.23076029  0.29094707  0.84781514    -0.05500
C281        C  0.19722398  0.32376623  0.84963010    -0.06200
C282        C  0.15237382  0.31428623  0.84672400    -0.15800
C283        C  0.14045432  0.27036145  0.84209066    -0.01400
C284        C  0.17400619  0.23741987  0.84101161    -0.09000
C285        C  0.27898833  0.30307888  0.84922361     0.65300
H286        H  0.20589043  0.35745210  0.85279102     0.10800
C287        C  0.09257852  0.25789506  0.83907633     0.63700
H288        H  0.16572642  0.20363934  0.83780719     0.07700
F289        F  0.30548617  0.17930109  0.77448450    -0.19300
F290        F  0.31571104  0.11056564  0.78808705    -0.15600
F291        F  0.36923112  0.15987317  0.79334490    -0.19100
F292        F  0.19558017  0.18343704  0.88681937    -0.22400
F293        F  0.24129744  0.23724100  0.89738245    -0.23900
F294        F  0.25677451  0.16819689  0.90927146    -0.17900
F295        F  0.07518497  0.27618505  0.81729579    -0.20400
F296        F  0.06843073  0.27277008  0.85952363    -0.21600
F297        F  0.08824133  0.21300344  0.83754803    -0.18700
F298        F  0.28363035  0.34748376  0.85317214    -0.18800
F299        F  0.29969217  0.29209961  0.82690001    -0.22700
F300        F  0.30003885  0.28084766  0.86868052    -0.24300
C301        C  0.83056583  0.37004368  0.20735652    -0.11100
C302        C  0.83200954  0.37098198  0.18126089     0.11500
C303        C  0.81504797  0.33602598  0.16741197    -0.02900
C304        C  0.79364096  0.30257551  0.18034904    -0.05600
C305        C  0.78845367  0.30231386  0.20683729    -0.16400
C306        C  0.81077952  0.33612333  0.22079221     0.02500
C307        C  0.85505825  0.40776028  0.16936447     0.12500
C308        C  0.82094944  0.33337696  0.13912378     0.63100
H309        H  0.78172287  0.27577382  0.16942177     0.12500
C310        C  0.81841379  0.33684854  0.24932280     0.55200
H311        H  0.84683372  0.39613306  0.21716273     0.08300
C312        C  0.83349129  0.44866934  0.16463020    -0.05500
C313        C  0.85819806  0.48273222  0.15462633    -0.06200
C314        C  0.90378479  0.47762572  0.15017633    -0.15800
C315        C  0.92543817  0.43671076  0.15529870    -0.01400
C316        C  0.90043051  0.40238214  0.16479781    -0.09000
C317        C  0.78496036  0.45665659  0.17079599     0.65300
H318        H  0.84221505  0.51424216  0.15084236     0.10800
C319        C  0.97434535  0.42875527  0.15030241     0.63700
H320        H  0.91622628  0.37101419  0.16917611     0.08100
F321        F  0.83237550  0.37718006  0.25753793    -0.19300
F322        F  0.85127857  0.30650947  0.25569902    -0.15600
F323        F  0.78083506  0.32879945  0.26270752    -0.19100
F324        F  0.86535743  0.32785353  0.13364355    -0.22400
F325        F  0.80491028  0.37138140  0.12782726    -0.23900
F326        F  0.79887087  0.29864538  0.12878996    -0.17900
F327        F  0.99896368  0.45399870  0.16636249    -0.20400
F328        F  0.98364331  0.43943864  0.12569311    -0.21600
F329        F  0.98725848  0.38537919  0.15400123    -0.18700
F330        F  0.76999871  0.49801313  0.16349029    -0.18800
F331        F  0.77882394  0.45298408  0.19640257    -0.22700
F332        F  0.75954979  0.42633889  0.15863678    -0.24300
C333        C  0.70760367  0.09519301  0.14265838    -0.11100
C334        C  0.68356941  0.11951170  0.16055824     0.11500
C335        C  0.64022846  0.10715723  0.16688737    -0.02900
C336        C  0.62358969  0.06895472  0.15614022    -0.05600
C337        C  0.64802078  0.04387207  0.13869876    -0.16400
C338        C  0.69067006  0.05735395  0.13154240     0.02500
C339        C  0.70574933  0.15596672  0.17365096     0.12500
C340        C  0.61121427  0.13454493  0.18446598     0.63100
H341        H  0.59074248  0.05873665  0.16094812     0.12500
C342        C  0.71894025  0.03138501  0.11296115     0.55200
H343        H  0.74023193  0.10589717  0.13776318     0.08300
C344        C  0.73598188  0.14797786  0.19322252    -0.05500
C345        C  0.75240422  0.18369798  0.20641743    -0.06200
C346        C  0.74166382  0.22877205  0.20091752    -0.15800
C347        C  0.70811287  0.23561480  0.18136164    -0.01400
C348        C  0.69363862  0.19895172  0.16754828    -0.09000
C349        C  0.75095932  0.10145968  0.20033554     0.65300
H350        H  0.77275739  0.17473351  0.22217112     0.10800
C351        C  0.68321013  0.27882537  0.17505042     0.63700
H352        H  0.67058727  0.20299177  0.15209138     0.08100
F353        F  0.76104626  0.04752492  0.11110936    -0.19300
F354        F  0.69970842  0.03355790  0.08938617    -0.15600
F355        F  0.72299567  0.98813120  0.12053950    -0.19100
F356        F  0.60015659  0.17406960  0.17310471    -0.22400
F357        F  0.63320904  0.14225768  0.20675754    -0.23900
F358        F  0.57235983  0.11398703  0.19016578    -0.17900
F359        F  0.66215287  0.29567502  0.19586886    -0.20400
F360        F  0.65015627  0.27336049  0.15735243    -0.21600
F361        F  0.71049165  0.30906594  0.16485718    -0.18700
F362        F  0.77722292  0.10019549  0.22169188    -0.18800
F363        F  0.77536938  0.08306197  0.18093538    -0.22700
F364        F  0.71475316  0.07614525  0.20488011    -0.24300
C365        C  0.10123251  0.60226122  0.79957064    -0.11100
C366        C  0.14572107  0.59902252  0.79247209     0.11500
C367        C  0.17146899  0.56135661  0.79899195    -0.02900
C368        C  0.15096420  0.52684575  0.81118375    -0.05600
C369        C  0.10594377  0.52885388  0.81758296    -0.16400
C370        C  0.08059626  0.56784147  0.81219012     0.02500
C371        C  0.16499585  0.63580494  0.77847746     0.12500
C372        C  0.22037158  0.55722342  0.79282861     0.63100
H373        H  0.17038244  0.49758394  0.81571302     0.12500
C374        C  0.03239569  0.57377450  0.81966584     0.55200
H375        H  0.08277787  0.63210293  0.79493078     0.08300
C376        C  0.16263310  0.63839541  0.75227442    -0.05500
C377        C  0.18698917  0.67019251  0.74012407    -0.06200
C378        C  0.21144376  0.70286896  0.75274390    -0.15800
C379        C  0.21132031  0.70114461  0.78025089    -0.01400
C380        C  0.18798948  0.66705151  0.79188028    -0.09000
C381        C  0.13419614  0.60774349  0.73710004     0.65300
H382        H  0.18733838  0.66930362  0.71984872     0.10800
C383        C  0.23773882  0.72882397  0.79890022     0.63700
H384        H  0.18854955  0.66290378  0.81206724     0.08100
F385        F  0.00747905  0.54227126  0.80814722    -0.19300
F386        F  0.01489811  0.61437180  0.81263332    -0.15600
F387        F  0.02859278  0.57041142  0.84547179    -0.19100
F388        F  0.24268298  0.59136937  0.80352973    -0.22400
F389        F  0.22592813  0.55798155  0.76715363    -0.23900
F390        F  0.23944543  0.51850640  0.80176394    -0.17900
F391        F  0.22384688  0.72323243  0.82342893    -0.20400
F392        F  0.23336505  0.77305917  0.79475636    -0.21600
F393        F  0.28172418  0.71575377  0.79851773    -0.18700
F394        F  0.13564689  0.61657799  0.71161181    -0.18800
F395        F  0.09068318  0.61251214  0.74465145    -0.22700
F396        F  0.14837236  0.56480221  0.74073503    -0.24300
C397        C  0.26500499  0.85373290  0.76014325    -0.11100
C398        C  0.30373887  0.84167637  0.77284911     0.11500
C399        C  0.31993534  0.79818112  0.77137625    -0.02900
C400        C  0.29523721  0.76767244  0.75794329    -0.05600
C401        C  0.25418401  0.77816449  0.74596486    -0.16400
C402        C  0.24301287  0.82476114  0.74408747     0.02500
C403        C  0.32825657  0.87644594  0.78593319     0.12500
C404        C  0.36242026  0.78372573  0.78467664     0.63100
H405        H  0.30777985  0.73433124  0.75728771     0.12500
C406        C  0.21349796  0.84880110  0.72468018     0.55200
H407        H  0.25395529  0.88778305  0.76125305     0.08300
C408        C  0.35392519  0.90660085  0.77262811    -0.05500
C409        C  0.37475376  0.93979875  0.78611650    -0.06200
C410        C  0.37114019  0.94362219  0.81238076    -0.15800
C411        C  0.34690770  0.91187656  0.82577341    -0.01400
C412        C  0.32506235  0.87947655  0.81208517    -0.09000
C413        C  0.35879535  0.90415408  0.74423685     0.65300
H414        H  0.39347568  0.96367710  0.77599916     0.10800
C415        C  0.34420996  0.91125002  0.85428453     0.63700
H416        H  0.30505509  0.85599006  0.82169769     0.08100
F417        F  0.23064654  0.88909840  0.71885772    -0.19300
F418        F  0.17188891  0.85701539  0.73442266    -0.15600
F419        F  0.21085243  0.82767881  0.70199897    -0.19100
F420        F  0.35722411  0.78818287  0.81033845    -0.22400
F421        F  0.39684767  0.80914303  0.77697121    -0.23900
F422        F  0.37389167  0.74040881  0.77970832    -0.17900
F423        F  0.32163254  0.87562053  0.86302734    -0.20400
F424        F  0.32223508  0.94866832  0.86281038    -0.21600
F425        F  0.38637913  0.90864410  0.86440089    -0.18700
F426        F  0.38948139  0.93308768  0.73546930    -0.18800
F427        F  0.31876038  0.91443139  0.73284223    -0.22700
F428        F  0.37255176  0.86244742  0.73709629    -0.24300
C429        C  0.14434172  0.67719420  0.15870846    -0.11100
C430        C  0.15062212  0.66554356  0.18391822     0.11500
C431        C  0.12232198  0.63515515  0.19514587    -0.02900
C432        C  0.08713293  0.61912425  0.18089108    -0.05600
C433        C  0.07948980  0.63196913  0.15582523    -0.16400
C434        C  0.10980515  0.66033969  0.14415578     0.02500
C435        C  0.18379673  0.68956959  0.19876627     0.12500
C436        C  0.12862986  0.62016187  0.22219977     0.63100
H437        H  0.06458354  0.59692820  0.18959315     0.12500
C438        C  0.10605617  0.67353444  0.11669805     0.55200
H439        H  0.16621534  0.70082903  0.15071550     0.08300
C440        C  0.22953197  0.68071659  0.19734236    -0.05500
C441        C  0.25799998  0.70672422  0.21150282    -0.06200
C442        C  0.24321434  0.74135310  0.22763082    -0.15800
C443        C  0.19562640  0.74404366  0.23183940    -0.01400
C444        C  0.16802981  0.72198571  0.21500961    -0.09000
C445        C  0.24833053  0.64458098  0.18055120     0.65300
H446        H  0.29291965  0.70059039  0.20949293     0.10800
C447        C  0.16949110  0.76569718  0.25342666     0.63700
H448        H  0.13253717  0.72798338  0.21561810     0.08100
F449        F  0.10748285  0.63653169  0.10171640    -0.19300
F450        F  0.14036133  0.69957611  0.10936317    -0.15600
F451        F  0.06689753  0.69698964  0.11263942    -0.19100
F452        F  0.11858216  0.65423811  0.23843050    -0.22400
F453        F  0.17189177  0.60603342  0.22614578    -0.23900
F454        F  0.10163624  0.58585199  0.22804572    -0.17900
F455        F  0.15396072  0.80682449  0.24635430    -0.20400
F456        F  0.19221726  0.76789756  0.27562357    -0.21600
F457        F  0.13296115  0.74132396  0.25917077    -0.18700
F458        F  0.29351806  0.63856913  0.18373500    -0.18800
F459        F  0.24030454  0.65500171  0.15566493    -0.22700
F460        F  0.22880680  0.60542352  0.18603837    -0.24300
C461        C  0.37202657  0.84222813  0.21000280    -0.11100
C462        C  0.36545200  0.83551885  0.18445529     0.11500
C463        C  0.33006183  0.81014306  0.17640392    -0.02900
C464        C  0.30311031  0.79089788  0.19464879    -0.05600
C465        C  0.31109827  0.79421515  0.22104086    -0.16400
C466        C  0.34554302  0.82355095  0.22859312     0.02500
C467        C  0.40011329  0.85160282  0.16732372     0.12500
C468        C  0.32090043  0.80333880  0.14859407     0.63100
H469        H  0.27563900  0.77303847  0.18775779     0.12500
C470        C  0.35652168  0.83666046  0.25564674     0.55200
H471        H  0.39939469  0.86236284  0.21524569     0.08300
C472        C  0.40447645  0.89655545  0.16171648    -0.05500
C473        C  0.44297465  0.90979677  0.14941942    -0.06200
C474        C  0.47751430  0.87994241  0.14306422    -0.15800
C475        C  0.47258585  0.83469341  0.14844658    -0.01400
C476        C  0.43385087  0.82158854  0.16051140    -0.09000
C477        C  0.36899885  0.93051482  0.16895990     0.65300
H478        H  0.44672594  0.94409684  0.14511647     0.10800
C479        C  0.50828675  0.80021698  0.14254161     0.63700
H480        H  0.43018799  0.78764549  0.16576010     0.08100
F481        F  0.32598602  0.86773410  0.26402521    -0.19300
F482        F  0.39749641  0.85538550  0.25754544    -0.15600
F483        F  0.35811813  0.80108228  0.27150183    -0.19100
F484        F  0.35663815  0.78210776  0.13740943    -0.22400
F485        F  0.31351772  0.84333131  0.13698480    -0.23900
F486        F  0.28412769  0.77838606  0.14454973    -0.17900
F487        F  0.49708497  0.75897289  0.15067307    -0.20400
F488        F  0.54730886  0.81066165  0.15440332    -0.21600
F489        F  0.51473895  0.79792621  0.11687138    -0.18700
F490        F  0.37947765  0.97214067  0.16115107    -0.18800
F491        F  0.36388985  0.93170087  0.19472108    -0.22700
F492        F  0.32923575  0.92024034  0.15798967    -0.24300
C493        C  0.91910798  0.19828524  0.30024199    -0.11100
C494        C  0.89025369  0.17153083  0.28705565     0.11500
C495        C  0.89796547  0.12555778  0.28698071    -0.02900
C496        C  0.93355453  0.10779046  0.30120681    -0.05600
C497        C  0.96189540  0.13454382  0.31489417    -0.16400
C498        C  0.95513017  0.18070527  0.31406558     0.02500
C499        C  0.85631164  0.19354842  0.27075065     0.12500
C500        C  0.86937788  0.09555939  0.27153104     0.63100
H501        H  0.93982144  0.07271688  0.30157601     0.12500
C502        C  0.98682859  0.21154035  0.32666196     0.55200
H503        H  0.91357181  0.23342440  0.29913282     0.08300
C504        C  0.81665612  0.21222966  0.28005597    -0.05500
C505        C  0.78887907  0.23660114  0.26361094    -0.06200
C506        C  0.79766591  0.24184929  0.23747835    -0.15800
C507        C  0.83950766  0.22268748  0.22864392    -0.01400
C508        C  0.86734603  0.19988798  0.24575883    -0.09000
C509        C  0.80377220  0.20646947  0.30741401     0.65300
H510        H  0.76072769  0.25271106  0.27202193     0.10800
C511        C  0.85808560  0.22636028  0.20200454     0.63700
H512        H  0.89943471  0.18707707  0.23993747     0.08100
F513        F  0.98300194  0.20840225  0.35245016    -0.19300
F514        F  0.97817200  0.25473759  0.31993564    -0.15600
F515        F  0.02979778  0.20088257  0.31967183    -0.19100
F516        F  0.87390912  0.10473634  0.24627286    -0.22400
F517        F  0.82554339  0.10155807  0.27815886    -0.23900
F518        F  0.88113175  0.05187721  0.27518391    -0.17900
F519        F  0.89394190  0.19795535  0.19810048    -0.20400
F520        F  0.87304993  0.26802108  0.19810926    -0.21600
F521        F  0.82751351  0.21583968  0.18399670    -0.18700
F522        F  0.76283599  0.22567566  0.31266342    -0.18800
F523        F  0.83459501  0.22530899  0.32289901    -0.22700
F524        F  0.80191220  0.16240330  0.31301013    -0.24300
C525        C  0.15656225  0.89685074  0.31180061    -0.11100
C526        C  0.20043286  0.90557422  0.30578021     0.11500
C527        C  0.21719730  0.94740141  0.31080094    -0.02900
C528        C  0.18905699  0.97919499  0.32201919    -0.05600
C529        C  0.14439669  0.97121933  0.32711116    -0.16400
C530        C  0.12791848  0.92901221  0.32223438     0.02500
C531        C  0.22474736  0.87263979  0.29025162     0.12500
C532        C  0.26364048  0.95926847  0.30305164     0.63100
H533        H  0.20126870  0.01152201  0.32568657     0.12500
C534        C  0.08038914  0.91769643  0.32757664     0.55200
H535        H  0.14434476  0.86491719  0.30706077     0.08300
C536        C  0.24856427  0.83659225  0.30040503    -0.05500
C537        C  0.26845084  0.80604576  0.28384283    -0.06200
C538        C  0.26121496  0.80682383  0.25730611    -0.15800
C539        C  0.23644905  0.84457064  0.24746304    -0.01400
C540        C  0.21972724  0.87634028  0.26436606    -0.09000
C541        C  0.25182284  0.82960070  0.32864890     0.65300
H542        H  0.28951077  0.78123163  0.29222388     0.10800
C543        C  0.22821512  0.85519838  0.21964315     0.63700
H544        H  0.20160297  0.90504984  0.25750474     0.08100
F545        F  0.07334113  0.87350572  0.32426667    -0.19300
F546        F  0.05237787  0.94064445  0.31138678    -0.15600
F547        F  0.06989243  0.92817873  0.35215683    -0.19100
F548        F  0.26698535  0.95848775  0.27717738    -0.22400
F549        F  0.29439544  0.92984160  0.31305089    -0.23900
F550        F  0.27421646  0.00067471  0.31125320    -0.17900
F551        F  0.19397688  0.88585174  0.21646586    -0.20400
F552        F  0.21625775  0.81921331  0.20603007    -0.21600
F553        F  0.26544093  0.87300786  0.20940053    -0.18700
F554        F  0.27470208  0.79108132  0.33467349    -0.18800
F555        F  0.20993838  0.82739500  0.33871207    -0.22700
F556        F  0.27331992  0.86376004  0.33980650    -0.24300
C557        C  0.56921604  0.32143473  0.27202260    -0.11100
C558        C  0.61066117  0.31969771  0.28376901     0.11500
C559        C  0.61516089  0.33538375  0.30857359    -0.02900
C560        C  0.57744915  0.35271152  0.32082683    -0.05600
C561        C  0.53576287  0.35545175  0.30896374    -0.16400
C562        C  0.53133857  0.33858928  0.28417171     0.02500
C563        C  0.64917878  0.30559849  0.26831496     0.12500
C564        C  0.65980089  0.33514731  0.32171141     0.63100
H565        H  0.58064206  0.36530068  0.33972963     0.12500
C566        C  0.48752275  0.33916076  0.27012750     0.55200
H567        H  0.56714095  0.30993661  0.25282444     0.08300
C568        C  0.65916894  0.26145830  0.26280125    -0.05500
C569        C  0.69430741  0.25149025  0.24640870    -0.06200
C570        C  0.71972759  0.28385731  0.23429794    -0.15800
C571        C  0.70327811  0.32894189  0.23721431    -0.01400
C572        C  0.67180863  0.33815389  0.25603891    -0.09000
C573        C  0.63296945  0.22498374  0.27437671     0.65300
H574        H  0.70349338  0.21739875  0.24379853     0.10800
C575        C  0.71161787  0.36953592  0.22116142     0.63700
H576        H  0.66153250  0.37187418  0.25978807     0.08100
F577        F  0.49160023  0.32144494  0.24627785    -0.19300
F578        F  0.47146569  0.38179087  0.26755620    -0.15600
F579        F  0.45743042  0.31465885  0.28308581    -0.19100
F580        F  0.68725059  0.36374657  0.30972427    -0.22400
F581        F  0.67906909  0.29358469  0.32118772    -0.23900
F582        F  0.65611569  0.34787005  0.34659674    -0.17900
F583        F  0.67183066  0.39172104  0.21637938    -0.20400
F584        F  0.72906694  0.36136724  0.19798962    -0.21600
F585        F  0.73839082  0.39758383  0.23417625    -0.18700
F586        F  0.63289697  0.22881011  0.30023735    -0.18800
F587        F  0.65048868  0.18396834  0.26835544    -0.22700
F588        F  0.58990043  0.22752032  0.26569355    -0.24300
C589        C  0.38107684  0.61711769  0.31835561    -0.11100
C590        C  0.36171112  0.61566149  0.29443134     0.11500
C591        C  0.36015416  0.57523728  0.28148528    -0.02900
C592        C  0.37683572  0.53710246  0.29343457    -0.05600
C593        C  0.39488887  0.53803753  0.31777233    -0.16400
C594        C  0.39767526  0.57888494  0.33041270     0.02500
C595        C  0.34383132  0.65699941  0.28294764     0.12500
C596        C  0.34097517  0.57243700  0.25510362     0.63100
H597        H  0.37533496  0.50590438  0.28387716     0.12500
C598        C  0.41860375  0.58251792  0.35627080     0.55200
H599        H  0.38258175  0.64858145  0.32762838     0.08300
C600        C  0.30071754  0.67290865  0.28746292    -0.05500
C601        C  0.28431342  0.70858272  0.27330021    -0.06200
C602        C  0.30916691  0.73146499  0.25510842    -0.15800
C603        C  0.35337667  0.71276278  0.25003910    -0.01400
C604        C  0.36968533  0.67804392  0.26544802    -0.09000
C605        C  0.27213933  0.65236040  0.30740640     0.65300
H606        H  0.25065386  0.71882702  0.27638754     0.10800
C607        C  0.38502244  0.72416738  0.22861323     0.63700
H608        H  0.40306854  0.66491741  0.26324710     0.08100
F609        F  0.39215976  0.56311695  0.37393307    -0.19300
F610        F  0.42369746  0.62570405  0.36329686    -0.15600
F611        F  0.46000780  0.56206708  0.35636623    -0.19100
F612        F  0.36643442  0.59574751  0.23862376    -0.22400
F613        F  0.29821071  0.58960767  0.25466898    -0.23900
F614        F  0.33995879  0.52965471  0.24662719    -0.17900
F615        F  0.40738879  0.76148582  0.23423351    -0.20400
F616        F  0.36393332  0.72797222  0.20581789    -0.21600
F617        F  0.41725010  0.69164249  0.22491384    -0.18700
F618        F  0.23035718  0.67195650  0.30845679    -0.18800
F619        F  0.29184898  0.65695148  0.33068229    -0.22700
F620        F  0.26739179  0.60834412  0.30246472    -0.24300
C621        C  0.29804744  0.25916381  0.36152136    -0.11100
C622        C  0.26151399  0.26975593  0.34627123     0.11500
C623        C  0.25968756  0.30973191  0.33298337    -0.02900
C624        C  0.29569033  0.33748723  0.33485145    -0.05600
C625        C  0.33297488  0.32690527  0.34981957    -0.16400
C626        C  0.33422985  0.28681424  0.36350169     0.02500
C627        C  0.22491478  0.23874245  0.34547462     0.12500
C628        C  0.21950014  0.32337382  0.31733461     0.63100
H629        H  0.29471108  0.36807276  0.32458790     0.12500
C630        C  0.37283923  0.27293848  0.38032187     0.55200
H631        H  0.29786957  0.22862504  0.37184262     0.08300
C632        C  0.22653995  0.20096236  0.33013503    -0.05500
C633        C  0.19146712  0.17199868  0.33134538    -0.06200
C634        C  0.15593353  0.17889613  0.34793579    -0.15800
C635        C  0.15439372  0.21699393  0.36326994    -0.01400
C636        C  0.18914619  0.24633288  0.36164391    -0.09000
C637        C  0.26556976  0.19082127  0.31299969     0.65300
H638        H  0.19244191  0.14266632  0.31992808     0.10800
C639        C  0.11670581  0.22696651  0.38135395     0.63700
H640        H  0.18933425  0.27514181  0.37349288     0.08100
F641        F  0.36551797  0.23387256  0.39260185    -0.19300
F642        F  0.37943727  0.30456844  0.39842141    -0.15600
F643        F  0.41063165  0.26701564  0.36606920    -0.19100
F644        F  0.18323899  0.32926499  0.33278856    -0.22400
F645        F  0.21063394  0.29150016  0.29976722    -0.23900
F646        F  0.22573132  0.36221007  0.30462238    -0.17900
F647        F  0.11849442  0.19751729  0.40107942    -0.20400
F648        F  0.07662861  0.22423294  0.36899265    -0.21600
F649        F  0.11887911  0.26868040  0.39134917    -0.18700
F650        F  0.25998589  0.15280298  0.29935429    -0.18800
F651        F  0.30374349  0.18543652  0.32711516    -0.22700
F652        F  0.27072515  0.22473200  0.29620381    -0.24300
C653        C  0.79423362  0.09101461  0.66169934    -0.11100
C654        C  0.82171495  0.12325172  0.67116575     0.11500
C655        C  0.86822226  0.11727416  0.66961053    -0.02900
C656        C  0.88566550  0.07920666  0.65794774    -0.05600
C657        C  0.85809157  0.04705338  0.64837389    -0.16400
C658        C  0.81161194  0.05270217  0.65038664     0.02500
C659        C  0.80072049  0.15920020  0.68609146     0.12500
C660        C  0.89916884  0.15040876  0.68076987     0.63100
H661        H  0.92109726  0.07392885  0.65648464     0.12500
C662        C  0.78059822  0.01730575  0.64204172     0.55200
H663        H  0.75887587  0.09554081  0.66406389     0.08300
C664        C  0.77860263  0.19563903  0.67523879    -0.05500
C665        C  0.75711233  0.22633413  0.69107647    -0.06200
C666        C  0.75566252  0.22203170  0.71775596    -0.15800
C667        C  0.77858996  0.18354389  0.72828901    -0.01400
C668        C  0.79989478  0.15359792  0.71194894    -0.09000
C669        C  0.77622815  0.20115747  0.64688027     0.65300
H670        H  0.73914560  0.25251567  0.68183877     0.10800
C671        C  0.77964457  0.16976848  0.75601727     0.63700
H672        H  0.81533218  0.12370657  0.71916941     0.08100
F673        F  0.78203122  0.01279471  0.61622902    -0.19300
F674        F  0.73727360  0.02706589  0.64873544    -0.15600
F675        F  0.79304539  0.97791312  0.65320145    -0.19100
F676        F  0.89463942  0.15156155  0.70658155    -0.22400
F677        F  0.88930337  0.19156895  0.67112913    -0.23900
F678        F  0.94296260  0.14003349  0.67544179    -0.17900
F679        F  0.74004547  0.15153625  0.76234316    -0.20400
F680        F  0.78855063  0.20384365  0.77189883    -0.21600
F681        F  0.81240013  0.13816766  0.76079663    -0.18700
F682        F  0.75661228  0.24090966  0.63997818    -0.18800
F683        F  0.75164122  0.16821202  0.63658500    -0.22700
F684        F  0.81824952  0.19904748  0.63681613    -0.24300
C685        C  0.09429918  0.84691332  0.66073442    -0.11100
C686        C  0.08252882  0.80682707  0.67112517     0.11500
C687        C  0.03833532  0.79325293  0.66931431    -0.02900
C688        C  0.00724840  0.82075629  0.65689244    -0.05600
C689        C  0.01863840  0.86167548  0.64720223    -0.16400
C690        C  0.06310476  0.87477561  0.64869471     0.02500
C691        C  0.11636544  0.78303983  0.68645902     0.12500
C692        C  0.02364779  0.75080097  0.68112886     0.63100
H693        H  0.97313958  0.81126255  0.65558154     0.12500
C694        C  0.07797702  0.91746248  0.63741393     0.55200
H695        H  0.12815365  0.85683493  0.66290112     0.08300
C696        C  0.15135635  0.75806888  0.67595443    -0.05500
C697        C  0.18520464  0.74193536  0.69192912    -0.06200
C698        C  0.18729692  0.75223786  0.71807784    -0.15800
C699        C  0.14720205  0.77166376  0.72866323    -0.01400
C700        C  0.11424983  0.78847160  0.71230851    -0.09000
C701        C  0.15352331  0.74962341  0.64784739     0.65300
H702        H  0.21023890  0.72113247  0.68346574     0.10800
C703        C  0.13604510  0.77447560  0.75656987     0.63700
H704        H  0.08586291  0.80671944  0.71954088     0.08100
F705        F  0.12348926  0.92070674  0.63826459    -0.19300
F706        F  0.05964548  0.95241730  0.65061059    -0.15600
F707        F  0.06491804  0.92012487  0.61252403    -0.19100
F708        F  0.02542142  0.75397752  0.70699748    -0.22400
F709        F  0.05081798  0.71621606  0.67349225    -0.23900
F710        F  0.98073267  0.74143885  0.67439304    -0.17900
F711        F  0.16964475  0.79226712  0.76993757    -0.20400
F712        F  0.12694717  0.73352061  0.76569084    -0.21600
F713        F  0.09890404  0.80077868  0.76121063    -0.18700
F714        F  0.18739182  0.72018265  0.64164868    -0.18800
F715        F  0.16057245  0.78842697  0.63536554    -0.22700
F716        F  0.11431409  0.73264130  0.63948423    -0.24300
C717        C  0.94879303  0.01245668  0.50552525    -0.11100
C718        C  0.99340398  0.00459139  0.49973944     0.11500
C719        C  0.02262640  0.98723086  0.51826377    -0.02900
C720        C  0.00516569  0.97475902  0.54151444    -0.05600
C721        C  0.96002698  0.98048768  0.54692440    -0.16400
C722        C  0.93147714  0.00125959  0.52904018     0.02500
C723        C  0.00841283  0.01554971  0.47410143     0.12500
C724        C  0.07196159  0.98231985  0.51357746     0.63100
H725        H  0.02671213  0.96005347  0.55565579     0.12500
C726        C  0.88359583  0.01343763  0.53497280     0.55200
H727        H  0.92755422  0.02732581  0.49128398     0.08300
C728        C  0.00186108  0.98720811  0.45349556    -0.05500
C729        C  0.01550893  0.00043000  0.42950811    -0.06200
C730        C  0.03569302  0.04066750  0.42569369    -0.15800
C731        C  0.04239178  0.06894501  0.44650346    -0.01400
C732        C  0.02799885  0.05589417  0.47035621    -0.09000
C733        C  0.97994127  0.94353507  0.45685469     0.65300
H734        H  0.01042136  0.97935561  0.41346776     0.10800
C735        C  0.06349596  0.11319487  0.44367386     0.63700
H736        H  0.03187250  0.07714234  0.48644259     0.08100
F737        F  0.85920285  0.97612412  0.53711380    -0.19300
F738        F  0.86428818  0.03934521  0.51636727    -0.15600
F739        F  0.88146886  0.03676478  0.55723618    -0.19100
F740        F  0.08921634  0.02304085  0.50943670    -0.22400
F741        F  0.07985231  0.95616265  0.49280574    -0.23900
F742        F  0.09411339  0.96356003  0.53387385    -0.17900
F743        F  0.06250980  0.13682913  0.46585664    -0.20400
F744        F  0.04107782  0.13780694  0.42561926    -0.21600
F745        F  0.10726860  0.10733381  0.43678845    -0.18700
F746        F  0.98061478  0.91915789  0.43493998    -0.18800
F747        F  0.93637249  0.95054507  0.46382201    -0.22700
F748        F  0.00164828  0.91918891  0.47526569    -0.24300
C749        C  0.65259891  0.44137492  0.68447947    -0.11100
C750        C  0.66238810  0.40368750  0.67034873     0.11500
C751        C  0.65091233  0.40226462  0.64465180    -0.02900
C752        C  0.63179754  0.44009100  0.63353651    -0.05600
C753        C  0.62172535  0.47804667  0.64765544    -0.16400
C754        C  0.63200394  0.47868730  0.67369429     0.02500
C755        C  0.67995980  0.36485100  0.68410069     0.12500
C756        C  0.65710644  0.36047516  0.62943959     0.63100
H757        H  0.62314272  0.43976162  0.61378563     0.12500
C758        C  0.62178338  0.51828774  0.69014617     0.55200
H759        H  0.66046065  0.44077255  0.70434745     0.08300
C760        C  0.72497301  0.35865909  0.68981479    -0.05500
C761        C  0.73792049  0.32264186  0.70468783    -0.06200
C762        C  0.70753381  0.29577120  0.71759582    -0.15800
C763        C  0.66085732  0.30787325  0.71423475    -0.01400
C764        C  0.64927504  0.33805417  0.69515479    -0.09000
C765        C  0.75904768  0.39070994  0.68094004     0.65300
H766        H  0.77291607  0.31565993  0.70667856     0.10800
C767        C  0.62052780  0.29623988  0.73002912     0.63700
H768        H  0.61468437  0.34485125  0.69078719     0.08100
F769        F  0.63818251  0.51274901  0.71429114    -0.19300
F770        F  0.57654196  0.52511498  0.69186162    -0.15600
F771        F  0.64066858  0.55494376  0.68002828    -0.19100
F772        F  0.63100062  0.32836277  0.63926419    -0.22400
F773        F  0.70075350  0.34599555  0.63025123    -0.23900
F774        F  0.64534529  0.36661746  0.60450717    -0.17900
F775        F  0.62980106  0.28321345  0.75402776    -0.20400
F776        F  0.59666063  0.26466629  0.71791107    -0.21600
F777        F  0.59280788  0.33288142  0.73283778    -0.18700
F778        F  0.80144344  0.37819720  0.68838400    -0.18800
F779        F  0.74958261  0.43162338  0.69099755    -0.22700
F780        F  0.75841124  0.39370256  0.65506330    -0.24300
C781        C  0.32195807  0.66218927  0.69911597    -0.11100
C782        C  0.33848096  0.69203455  0.68221322     0.11500
C783        C  0.31951174  0.73446071  0.68106005    -0.02900
C784        C  0.28489559  0.74567369  0.69767728    -0.05600
C785        C  0.26805014  0.71664916  0.71611667    -0.16400
C786        C  0.29070608  0.67391920  0.71769909     0.02500
C787        C  0.37832332  0.67790907  0.66767418     0.12500
C788        C  0.33572207  0.76756170  0.66219191     0.63100
H789        H  0.27082612  0.77840641  0.69654729     0.12500
C790        C  0.28774643  0.63963880  0.73851208     0.55200
H791        H  0.33675939  0.62943123  0.69866081     0.08300
C792        C  0.42092956  0.67749263  0.67873581    -0.05500
C793        C  0.45682758  0.65970014  0.66510429    -0.06200
C794        C  0.45142460  0.64004543  0.64145672    -0.15800
C795        C  0.40835514  0.63997270  0.63048257    -0.01400
C796        C  0.37264971  0.65948516  0.64382089    -0.09000
C797        C  0.42819112  0.69343367  0.70546305     0.65300
H798        H  0.48943790  0.65925174  0.67350951     0.10800
C799        C  0.39941560  0.61900765  0.60514042     0.63700
H800        H  0.33947860  0.65914500  0.63616125     0.08100
F801        F  0.32531422  0.61257267  0.73957182    -0.19300
F802        F  0.25288471  0.61292911  0.73380705    -0.15600
F803        F  0.28494914  0.65808571  0.76194013    -0.19100
F804        F  0.33077795  0.75142660  0.63812058    -0.22400
F805        F  0.37985728  0.77536000  0.66641753    -0.23900
F806        F  0.31239511  0.80713658  0.66372734    -0.17900
F807        F  0.35569792  0.62474605  0.59779860    -0.20400
F808        F  0.40864208  0.57444653  0.60641766    -0.21600
F809        F  0.42532768  0.63758500  0.58690405    -0.18700
F810        F  0.47261059  0.69388197  0.71168223    -0.18800
F811        F  0.40779993  0.66594769  0.72212937    -0.22700
F812        F  0.41081738  0.73544097  0.70838336    -0.24300
C813        C  0.52639866  0.45442782  0.45506635    -0.11100
C814        C  0.49316607  0.47093037  0.47094431     0.11500
C815        C  0.44865767  0.47229945  0.46280447    -0.02900
C816        C  0.43902168  0.45782735  0.43841106    -0.05600
C817        C  0.47240256  0.44274828  0.42198820    -0.16400
C818        C  0.51689147  0.43981797  0.43065343     0.02500
C819        C  0.50652353  0.49003675  0.49520638     0.12500
C820        C  0.41166254  0.48955025  0.47970092     0.63100
H821        H  0.40522764  0.45960929  0.43168050     0.12500
C822        C  0.55429689  0.42107674  0.41460826     0.55200
H823        H  0.56019213  0.45417158  0.46182987     0.08300
C824        C  0.51484346  0.46416443  0.51679406    -0.05500
C825        C  0.52640599  0.48525921  0.53921385    -0.06200
C826        C  0.53112023  0.53085135  0.54032291    -0.15800
C827        C  0.52335129  0.55660661  0.51849135    -0.01400
C828        C  0.51141849  0.53543568  0.49618490    -0.09000
C829        C  0.51295416  0.41455759  0.51592232     0.65300
H830        H  0.53297190  0.46605559  0.55598759     0.10800
C831        C  0.52627160  0.60617218  0.51872538     0.63700
H832        H  0.50551127  0.55419827  0.47917325     0.08100
F833        F  0.59309588  0.41543474  0.42825169    -0.19300
F834        F  0.56251783  0.44912587  0.39491770    -0.15600
F835        F  0.54313646  0.38059583  0.40530441    -0.19100
F836        F  0.41801480  0.53297528  0.48553701    -0.22400
F837        F  0.41099287  0.46551996  0.50167248    -0.23900
F838        F  0.37066756  0.48678324  0.46831407    -0.17900
F839        F  0.56967281  0.61768485  0.52225284    -0.20400
F840        F  0.50040384  0.62362166  0.53784656    -0.21600
F841        F  0.51155848  0.62471623  0.49637351    -0.18700
F842        F  0.51788869  0.39611156  0.53955590    -0.18800
F843        F  0.54657639  0.39803579  0.50085351    -0.22700
F844        F  0.47290911  0.40190663  0.50623710    -0.24300
C845        C  0.67869203  0.75625740  0.60454999    -0.11100
C846        C  0.72349245  0.74341216  0.60494535     0.11500
C847        C  0.73587687  0.69841822  0.60402739    -0.02900
C848        C  0.70241612  0.66750281  0.60306904    -0.05600
C849        C  0.65740864  0.68023393  0.60278022    -0.16400
C850        C  0.64517569  0.72545938  0.60314982     0.02500
C851        C  0.75650679  0.77803682  0.60744722     0.12500
C852        C  0.78413101  0.68314333  0.60445194     0.63100
H853        H  0.71121093  0.63288805  0.60284376     0.12500
C854        C  0.59714914  0.74136979  0.60276678     0.55200
H855        H  0.67025851  0.79091289  0.60551016     0.08300
C856        C  0.76906933  0.80390191  0.58680593    -0.05500
C857        C  0.79979681  0.83666306  0.59081895    -0.06200
C858        C  0.81880902  0.84390479  0.61452032    -0.15800
C859        C  0.80636832  0.81773121  0.63520191    -0.01400
C860        C  0.77456064  0.78570555  0.63129375    -0.09000
C861        C  0.75073837  0.79659100  0.56057101     0.65300
H862        H  0.80953350  0.85691151  0.57522076     0.10800
C863        C  0.82758318  0.82202933  0.66094068     0.63700
H864        H  0.76379358  0.76581270  0.64681798     0.08100
F865        F  0.59295919  0.78633678  0.60557941    -0.19300
F866        F  0.57436679  0.72230333  0.62218784    -0.15600
F867        F  0.57804779  0.73054079  0.58005208    -0.19100
F868        F  0.80311206  0.69385548  0.62718860    -0.22400
F869        F  0.80689358  0.70296981  0.58532474    -0.23900
F870        F  0.78885175  0.63827261  0.60131195    -0.17900
F871        F  0.81632473  0.86238971  0.67118727    -0.20400
F872        F  0.87304541  0.81776344  0.65885943    -0.21600
F873        F  0.81390030  0.79007557  0.67737918    -0.18700
F874        F  0.76931795  0.82399706  0.54307606    -0.18800
F875        F  0.70559360  0.80457613  0.56033131    -0.22700
F876        F  0.75957861  0.75391159  0.55313990    -0.24300
loop_ 
_geom_bond_atom_site_label_1 
_geom_bond_atom_site_label_2 
_geom_bond_distance 
_geom_bond_site_symmetry_2 
_ccdc_geom_bond_type 
In1           O3   2.239       .  S
In1           O4   2.250       .  S
In1          O12   2.247       .  S
In1           O6   2.247       .  S
In1           O8   2.231       .  S
In1           O9   2.257       .  S
In1          O10   2.233       .  S
In1          O13   2.257       .  S
C2            O8   1.261       .  A
C2           O10   1.261       .  A
C2          C826   1.477       .  S
O3           C11   1.259       .  A
O4           C11   1.261       .  A
C5           O12   1.259       .  A
C5            O6   1.259       .  A
C5          C849   1.483       .  S
C7            O9   1.261       .  A
C7           O13   1.256       .  A
C7          C794   1.495       .  S
C11         C753   1.483       .  S
In14         O16   2.240       .  S
In14         O17   2.264       .  S
In14         O25   2.259       .  S
In14         O19   2.216       .  S
In14         O21   2.235       .  S
In14         O22   2.258       .  S
In14         O23   2.255       .  S
In14         O26   2.242       .  S
C15          O21   1.255       .  A
C15          O23   1.259       .  A
C15         C721   1.479       .  S
O16          C24   1.256   1_565  A
O17          C24   1.261   1_565  A
C18          O25   1.264       .  A
C18          O19   1.261       .  A
C18         C858   1.483       .  S
C20          O22   1.261       .  A
C20          O26   1.258       .  A
C20         C689   1.481   1_655  S
C24         C657   1.478       .  S
In27         O29   2.248       .  S
In27         O30   2.250       .  S
In27         O38   2.241       .  S
In27         O32   2.252       .  S
In27         O34   2.243       .  S
In27         O35   2.267       .  S
In27         O36   2.236       .  S
In27         O39   2.261       .  S
C28          O34   1.263       .  A
C28          O36   1.260       .  A
C28         C817   1.484       .  S
O29          C37   1.258       .  A
O30          C37   1.260       .  A
C31          O38   1.261       .  A
C31          O32   1.259       .  A
C31         C625   1.491       .  S
C33          O35   1.259       .  A
C33          O39   1.255       .  A
C33         C593   1.490       .  S
C37         C561   1.492       .  S
In40         O42   2.248       .  S
In40         O43   2.266       .  S
In40         O51   2.242       .  S
In40         O45   2.227       .  S
In40         O47   2.229       .  S
In40         O48   2.256       .  S
In40         O49   2.266       .  S
In40         O52   2.243       .  S
C41          O47   1.254       .  A
C41          O49   1.261       .  A
C41         C730   1.483       .  S
O42          C50   1.257   1_455  A
O43          C50   1.261   1_455  A
C44          O51   1.264       .  A
C44          O45   1.259       .  A
C44         C634   1.482       .  S
C46          O48   1.261       .  A
C46          O52   1.258       .  A
C46         C529   1.488   1_545  S
C50         C497   1.484       .  S
C53         C442   1.600       .  S
C53         C465   1.582       .  S
C53         C538   1.579       .  S
C53         C602   1.606       .  S
C54         C378   1.584       .  S
C54         C401   1.586       .  S
C54         C698   1.596       .  S
C54         C785   1.609       .  S
C55         C305   1.566       .  S
C55         C346   1.618       .  S
C55         C506   1.601       .  S
C55         C570   1.591       .  S
In56         O58   2.239   1_545  S
In56         O59   2.261       .  S
In56         O67   2.258       .  S
In56         O61   2.244       .  S
In56         O63   2.234       .  S
In56         O64   2.257       .  S
In56         O65   2.248       .  S
In56         O68   2.244       .  S
C57          O63   1.258       .  A
C57          O65   1.261       .  A
C57         C241   1.483       .  S
O58          C66   1.255       .  A
O59          C66   1.261   1_545  A
C60          O67   1.261       .  A
C60          O61   1.262       .  A
C60         C273   1.494       .  S
C62          O64   1.259       .  A
C62          O68   1.259       .  A
C62         C218   1.484       .  S
C66         C410   1.494       .  S
In69         O71   2.229       .  S
In69         O72   2.253       .  S
In69         O80   2.253       .  S
In69         O74   2.267       .  S
In69         O76   2.252       .  S
In69         O77   2.255       .  S
In69         O78   2.242       .  S
In69         O81   2.235   1_455  S
C70          O76   1.259       .  A
C70          O78   1.258       .  A
C70         C177   1.481       .  S
O71          C79   1.263       .  A
O72          C79   1.260       .  A
C73          O80   1.257       .  A
C73          O74   1.261       .  A
C73         C282   1.489       .  S
C75          O77   1.261   1_655  A
C75          O81   1.257       .  A
C75         C145   1.481       .  S
C79         C369   1.492       .  S
In82         O84   2.247   1_655  S
In82         O85   2.250   1_655  S
In82         O93   2.243       .  S
In82         O87   2.251       .  S
In82         O89   2.249       .  S
In82         O90   2.245       .  S
In82         O91   2.243   1_655  S
In82         O94   2.240       .  S
C83          O89   1.261       .  A
C83          O91   1.257   1_655  A
C83         C186   1.492       .  S
O84          C92   1.258       .  A
O85          C92   1.262       .  A
C86          O93   1.259       .  A
C86          O87   1.260       .  A
C86         C113   1.480       .  S
C88          O90   1.261       .  A
C88          O94   1.261       .  A
C88         C314   1.484       .  S
C92         C433   1.495       .  S
In95         O97   2.252       .  S
In95         O98   2.258       .  S
In95        O106   2.255       .  S
In95        O100   2.227       .  S
In95        O102   2.235       .  S
In95        O103   2.252       .  S
In95        O104   2.239       .  S
In95        O107   2.245       .  S
C96         O102   1.257       .  A
C96         O104   1.261       .  A
C96         C250   1.483       .  S
O97         C105   1.258       .  A
O98         C105   1.261       .  A
C99         O106   1.263       .  A
C99         O100   1.257       .  A
C99         C122   1.482       .  S
C101        O103   1.262   1_545  A
C101        O107   1.258   1_545  A
C101        C337   1.484       .  S
C105        C474   1.495       .  S
C108        C154   1.612       .  S
C108        C209   1.565       .  S
C108        C666   1.596       .  S
C108        C762   1.589       .  S
C109        C110   1.402       .  A
C109        C114   1.408       .  A
C109        H119   1.083       .  S
C110        C115   1.482       .  S
C110        C111   1.415       .  A
C111        C116   1.521       .  S
C111        C112   1.405       .  A
C112        C113   1.404       .  A
C112        H117   1.083       .  S
C113        C114   1.418       .  A
C114        C118   1.518       .  S
C115        C120   1.414       .  A
C115        C124   1.399       .  A
C116        F132   1.382       .  S
C116        F133   1.382       .  S
C116        F134   1.384       .  S
C118        F129   1.385       .  S
C118        F130   1.382       .  S
C118        F131   1.384       .  S
C120        C125   1.519       .  S
C120        C121   1.408       .  A
C121        C122   1.406       .  A
C121        H126   1.083       .  S
C122        C123   1.422       .  A
C123        C127   1.521       .  S
C123        C124   1.405       .  A
C124        H128   1.083       .  S
C125        F138   1.385       .  S
C125        F139   1.382       .  S
C125        F140   1.382       .  S
C127        F135   1.383       .  S
C127        F136   1.384       .  S
C127        F137   1.385       .  S
C141        C142   1.398       .  A
C141        C146   1.404       .  A
C141        H151   1.083       .  S
C142        C147   1.481       .  S
C142        C143   1.415       .  A
C143        C148   1.520       .  S
C143        C144   1.408       .  A
C144        C145   1.406       .  A
C144        H149   1.083       .  S
C145        C146   1.421       .  A
C146        C150   1.519       .  S
C147        C152   1.400       .  A
C147        C156   1.389       .  A
C148        F164   1.383       .  S
C148        F165   1.382       .  S
C148        F166   1.385       .  S
C150        F161   1.385       .  S
C150        F162   1.382       .  S
C150        F163   1.382       .  S
C152        C157   1.526       .  S
C152        C153   1.400       .  A
C153        C154   1.433       .  A
C153        H158   1.072       .  S
C154        C155   1.461       .  A
C155        C159   1.537       .  S
C155        C156   1.416       .  A
C156        H160   1.082       .  S
C157        F170   1.385       .  S
C157        F171   1.382       .  S
C157        F172   1.382       .  S
C159        F167   1.385       .  S
C159        F168   1.370       .  S
C159        F169   1.375       .  S
C173        C174   1.401   1_655  A
C173        C178   1.407   1_655  A
C173        H183   1.083       .  S
C174        C179   1.482   1_556  S
C174        C175   1.414       .  A
C175        C180   1.520       .  S
C175        C176   1.404       .  A
C176        C177   1.404       .  A
C176        H181   1.083       .  S
C177        C178   1.420       .  A
C178        C182   1.519   1_455  S
C179        C184   1.413   1_455  A
C179        C188   1.398       .  A
C180        F196   1.382       .  S
C180        F197   1.383       .  S
C180        F198   1.385       .  S
C182        F193   1.385       .  S
C182        F194   1.382       .  S
C182        F195   1.384       .  S
C184        C189   1.521   1_554  S
C184        C185   1.405       .  A
C185        C186   1.409       .  A
C185        H190   1.082       .  S
C186        C187   1.426   1_655  A
C187        C191   1.520       .  S
C187        C188   1.407       .  A
C188        H192   1.083       .  S
C189        F202   1.385       .  S
C189        F203   1.382       .  S
C189        F204   1.382       .  S
C191        F199   1.382       .  S
C191        F200   1.383       .  S
C191        F201   1.385       .  S
C205        C206   1.392       .  A
C205        C210   1.410       .  A
C205        H215   1.083       .  S
C206        C211   1.482       .  S
C206        C207   1.405       .  A
C207        C212   1.520       .  S
C207        C208   1.404       .  A
C208        C209   1.421       .  A
C208        H213   1.074       .  S
C209        C210   1.454       .  A
C210        C214   1.536       .  S
C211        C216   1.414       .  A
C211        C220   1.400       .  A
C212        F228   1.382       .  S
C212        F229   1.382       .  S
C212        F230   1.385       .  S
C214        F225   1.374       .  S
C214        F226   1.385       .  S
C214        F227   1.380       .  S
C216        C221   1.519       .  S
C216        C217   1.404       .  A
C217        C218   1.405       .  A
C217        H222   1.083       .  S
C218        C219   1.421       .  A
C219        C223   1.518       .  S
C219        C220   1.407       .  A
C220        H224   1.083       .  S
C221        F234   1.385       .  S
C221        F235   1.382       .  S
C221        F236   1.382       .  S
C223        F231   1.382       .  S
C223        F232   1.383       .  S
C223        F233   1.385       .  S
C237        C238   1.398       .  A
C237        C242   1.405   1_565  A
C237        H247   1.083       .  S
C238        C243   1.479       .  S
C238        C239   1.413       .  A
C239        C244   1.520       .  S
C239        C240   1.405   1_565  A
C240        C241   1.406       .  A
C240        H245   1.083       .  S
C241        C242   1.422       .  A
C242        C246   1.520       .  S
C243        C248   1.413   1_566  A
C243        C252   1.399       .  A
C244        F260   1.382       .  S
C244        F261   1.382   1_565  S
C244        F262   1.385       .  S
C246        F257   1.383       .  S
C246        F258   1.385   1_545  S
C246        F259   1.384   1_545  S
C248        C253   1.520       .  S
C248        C249   1.403   1_545  A
C249        C250   1.406       .  A
C249        H254   1.083   1_565  S
C250        C251   1.423       .  A
C251        C255   1.520       .  S
C251        C252   1.407   1_554  A
C252        H256   1.083       .  S
C253        F266   1.385       .  S
C253        F267   1.382   1_554  S
C253        F268   1.382   1_554  S
C255        F263   1.385       .  S
C255        F264   1.384       .  S
C255        F265   1.383       .  S
C269        C270   1.402       .  A
C269        C274   1.412       .  A
C269        H279   1.083       .  S
C270        C275   1.489       .  S
C270        C271   1.413       .  A
C271        C276   1.519       .  S
C271        C272   1.407       .  A
C272        C273   1.408       .  A
C272        H277   1.083       .  S
C273        C274   1.424       .  A
C274        C278   1.519       .  S
C275        C280   1.416       .  A
C275        C284   1.401       .  A
C276        F292   1.383       .  S
C276        F293   1.382       .  S
C276        F294   1.385       .  S
C278        F289   1.385       .  S
C278        F290   1.384       .  S
C278        F291   1.383       .  S
C280        C285   1.519       .  S
C280        C281   1.409       .  A
C281        C282   1.405       .  A
C281        H286   1.083       .  S
C282        C283   1.422       .  A
C283        C287   1.518       .  S
C283        C284   1.410       .  A
C284        H288   1.083       .  S
C285        F298   1.384       .  S
C285        F299   1.383       .  S
C285        F300   1.382       .  S
C287        F295   1.383       .  S
C287        F296   1.383       .  S
C287        F297   1.384       .  S
C301        C302   1.391       .  A
C301        C306   1.409       .  A
C301        H311   1.083       .  S
C302        C307   1.484       .  S
C302        C303   1.407       .  A
C303        C308   1.519       .  S
C303        C304   1.408       .  A
C304        C305   1.420       .  A
C304        H309   1.075       .  S
C305        C306   1.454       .  A
C306        C310   1.536       .  S
C307        C312   1.415       .  A
C307        C316   1.401       .  A
C308        F324   1.382       .  S
C308        F325   1.382       .  S
C308        F326   1.384       .  S
C310        F321   1.385       .  S
C310        F322   1.381       .  S
C310        F323   1.373       .  S
C312        C317   1.519       .  S
C312        C313   1.406       .  A
C313        C314   1.405       .  A
C313        H318   1.083       .  S
C314        C315   1.420       .  A
C315        C319   1.518       .  S
C315        C316   1.407       .  A
C316        H320   1.083       .  S
C317        F330   1.385       .  S
C317        F331   1.382       .  S
C317        F332   1.382       .  S
C319        F327   1.383       .  S
C319        F328   1.383       .  S
C319        F329   1.384       .  S
C333        C334   1.401       .  A
C333        C338   1.409       .  A
C333        H343   1.083       .  S
C334        C339   1.490       .  S
C334        C335   1.418       .  A
C335        C340   1.520       .  S
C335        C336   1.406       .  A
C336        C337   1.403       .  A
C336        H341   1.083       .  S
C337        C338   1.421       .  A
C338        C342   1.519       .  S
C339        C344   1.401       .  A
C339        C348   1.391       .  A
C340        F356   1.382       .  S
C340        F357   1.383       .  S
C340        F358   1.385       .  S
C342        F353   1.385       .  S
C342        F354   1.382       .  S
C342        F355   1.384   1_545  S
C344        C349   1.526       .  S
C344        C345   1.401       .  A
C345        C346   1.436       .  A
C345        H350   1.070       .  S
C346        C347   1.463       .  A
C347        C351   1.537       .  S
C347        C348   1.420       .  A
C348        H352   1.082       .  S
C349        F362   1.385       .  S
C349        F363   1.382       .  S
C349        F364   1.383       .  S
C351        F359   1.373       .  S
C351        F360   1.386       .  S
C351        F361   1.371       .  S
C365        C366   1.401       .  A
C365        C370   1.411       .  A
C365        H375   1.083       .  S
C366        C371   1.484       .  S
C366        C367   1.413       .  A
C367        C372   1.519       .  S
C367        C368   1.401       .  A
C368        C369   1.406       .  A
C368        H373   1.082       .  S
C369        C370   1.426       .  A
C370        C374   1.520       .  S
C371        C376   1.399       .  A
C371        C380   1.394       .  A
C372        F388   1.382       .  S
C372        F389   1.378       .  S
C372        F390   1.384       .  S
C374        F385   1.383       .  S
C374        F386   1.385       .  S
C374        F387   1.383       .  S
C376        C381   1.522       .  S
C376        C377   1.398       .  A
C377        C378   1.428       .  A
C377        H382   1.080       .  S
C378        C379   1.466       .  A
C379        C383   1.542       .  S
C379        C380   1.420       .  A
C380        H384   1.082       .  S
C381        F394   1.385       .  S
C381        F395   1.383       .  S
C381        F396   1.382       .  S
C383        F391   1.386       .  S
C383        F392   1.372       .  S
C383        F393   1.379       .  S
C397        C398   1.392       .  A
C397        C402   1.411       .  A
C397        H407   1.085       .  S
C398        C403   1.486       .  S
C398        C399   1.405       .  A
C399        C404   1.520       .  S
C399        C400   1.406       .  A
C400        C401   1.423       .  A
C400        H405   1.077       .  S
C401        C402   1.457       .  A
C402        C406   1.536       .  S
C403        C408   1.415       .  A
C403        C412   1.399       .  A
C404        F420   1.382       .  S
C404        F421   1.382       .  S
C404        F422   1.384       .  S
C406        F417   1.386       .  S
C406        F418   1.380       .  S
C406        F419   1.373       .  S
C408        C413   1.521       .  S
C408        C409   1.406       .  A
C409        C410   1.408       .  A
C409        H414   1.082       .  S
C410        C411   1.427       .  A
C411        C415   1.521       .  S
C411        C412   1.409       .  A
C412        H416   1.083       .  S
C413        F426   1.384       .  S
C413        F427   1.381       .  S
C413        F428   1.383       .  S
C415        F423   1.385       .  S
C415        F424   1.383       .  S
C415        F425   1.384       .  S
C429        C430   1.400       .  A
C429        C434   1.409       .  A
C429        H439   1.083       .  S
C430        C435   1.487       .  S
C430        C431   1.416       .  A
C431        C436   1.521       .  S
C431        C432   1.406       .  A
C432        C433   1.408       .  A
C432        H437   1.082       .  S
C433        C434   1.426       .  A
C434        C438   1.520       .  S
C435        C440   1.405       .  A
C435        C444   1.390       .  A
C436        F452   1.381       .  S
C436        F453   1.382       .  S
C436        F454   1.385       .  S
C438        F449   1.384       .  S
C438        F450   1.385       .  S
C438        F451   1.383       .  S
C440        C445   1.519       .  S
C440        C441   1.407       .  A
C441        C442   1.426       .  A
C441        H446   1.074       .  S
C442        C443   1.459       .  A
C443        C447   1.536       .  S
C443        C444   1.409       .  A
C444        H448   1.085       .  S
C445        F458   1.385       .  S
C445        F459   1.382       .  S
C445        F460   1.382       .  S
C447        F455   1.380       .  S
C447        F456   1.368       .  S
C447        F457   1.387       .  S
C461        C462   1.390       .  A
C461        C466   1.408       .  A
C461        H471   1.083       .  S
C462        C467   1.488       .  S
C462        C463   1.407       .  A
C463        C468   1.521       .  S
C463        C464   1.411       .  A
C464        C465   1.429       .  A
C464        H469   1.072       .  S
C465        C466   1.451       .  A
C466        C470   1.533       .  S
C467        C472   1.416       .  A
C467        C476   1.401       .  A
C468        F484   1.382       .  S
C468        F485   1.381       .  S
C468        F486   1.385       .  S
C470        F481   1.380       .  S
C470        F482   1.385       .  S
C470        F483   1.376       .  S
C472        C477   1.522       .  S
C472        C473   1.409       .  A
C473        C474   1.409       .  A
C473        H478   1.082       .  S
C474        C475   1.425       .  A
C475        C479   1.520       .  S
C475        C476   1.408       .  A
C476        H480   1.083       .  S
C477        F490   1.385       .  S
C477        F491   1.381       .  S
C477        F492   1.381       .  S
C479        F487   1.385       .  S
C479        F488   1.383       .  S
C479        F489   1.383       .  S
C493        C494   1.401       .  A
C493        C498   1.407       .  A
C493        H503   1.083       .  S
C494        C499   1.488       .  S
C494        C495   1.417       .  A
C495        C500   1.520       .  S
C495        C496   1.410       .  A
C496        C497   1.405       .  A
C496        H501   1.083       .  S
C497        C498   1.420       .  A
C498        C502   1.519       .  S
C499        C504   1.406       .  A
C499        C508   1.388       .  A
C500        F516   1.382       .  S
C500        F517   1.382       .  S
C500        F518   1.385       .  S
C502        F513   1.382       .  S
C502        F514   1.385       .  S
C502        F515   1.384   1_655  S
C504        C509   1.521       .  S
C504        C505   1.409       .  A
C505        C506   1.428       .  A
C505        H510   1.071       .  S
C506        C507   1.459       .  A
C507        C511   1.533       .  S
C507        C508   1.409       .  A
C508        H512   1.083       .  S
C509        F522   1.385       .  S
C509        F523   1.382       .  S
C509        F524   1.382       .  S
C511        F519   1.386       .  S
C511        F520   1.380       .  S
C511        F521   1.375       .  S
C525        C526   1.401       .  A
C525        C530   1.407       .  A
C525        H535   1.084       .  S
C526        C531   1.483       .  S
C526        C527   1.415       .  A
C527        C532   1.521       .  S
C527        C528   1.407       .  A
C528        C529   1.409       .  A
C528        H533   1.083   1_565  S
C529        C530   1.421       .  A
C530        C534   1.518       .  S
C531        C536   1.405       .  A
C531        C540   1.390       .  A
C532        F548   1.382       .  S
C532        F549   1.380       .  S
C532        F550   1.385   1_565  S
C534        F545   1.385       .  S
C534        F546   1.383       .  S
C534        F547   1.383       .  S
C536        C541   1.521       .  S
C536        C537   1.408       .  A
C537        C538   1.429       .  A
C537        H542   1.072       .  S
C538        C539   1.453       .  A
C539        C543   1.534       .  S
C539        C540   1.408       .  A
C540        H544   1.083       .  S
C541        F554   1.385       .  S
C541        F555   1.382       .  S
C541        F556   1.380       .  S
C543        F551   1.386       .  S
C543        F552   1.374       .  S
C543        F553   1.381       .  S
C557        C558   1.400       .  A
C557        C562   1.406       .  A
C557        H567   1.083       .  S
C558        C563   1.483       .  S
C558        C559   1.413       .  A
C559        C564   1.519       .  S
C559        C560   1.407       .  A
C560        C561   1.410       .  A
C560        H565   1.083       .  S
C561        C562   1.424       .  A
C562        C566   1.520       .  S
C563        C568   1.405       .  A
C563        C572   1.390       .  A
C564        F580   1.382       .  S
C564        F581   1.382       .  S
C564        F582   1.385       .  S
C566        F577   1.385       .  S
C566        F578   1.383       .  S
C566        F579   1.383       .  S
C568        C573   1.520       .  S
C568        C569   1.405       .  A
C569        C570   1.427       .  A
C569        H574   1.079       .  S
C570        C571   1.459       .  A
C571        C575   1.534       .  S
C571        C572   1.408       .  A
C572        H576   1.086       .  S
C573        F586   1.382       .  S
C573        F587   1.384       .  S
C573        F588   1.382       .  S
C575        F583   1.387       .  S
C575        F584   1.364       .  S
C575        F585   1.382       .  S
C589        C590   1.402       .  A
C589        C594   1.411       .  A
C589        H599   1.083       .  S
C590        C595   1.490       .  S
C590        C591   1.417       .  A
C591        C596   1.521       .  S
C591        C592   1.407       .  A
C592        C593   1.405       .  A
C592        H597   1.083       .  S
C593        C594   1.423       .  A
C594        C598   1.519       .  S
C595        C600   1.401       .  A
C595        C604   1.390       .  A
C596        F612   1.382       .  S
C596        F613   1.382       .  S
C596        F614   1.384       .  S
C598        F609   1.383       .  S
C598        F610   1.385       .  S
C598        F611   1.384       .  S
C600        C605   1.520       .  S
C600        C601   1.403       .  A
C601        C602   1.425       .  A
C601        H606   1.070       .  S
C602        C603   1.466       .  A
C603        C607   1.539       .  S
C603        C604   1.417       .  A
C604        H608   1.083       .  S
C605        F618   1.385       .  S
C605        F619   1.382       .  S
C605        F620   1.382       .  S
C607        F615   1.376       .  S
C607        F616   1.373       .  S
C607        F617   1.386       .  S
C621        C622   1.400       .  A
C621        C626   1.407       .  A
C621        H631   1.083       .  S
C622        C627   1.480       .  S
C622        C623   1.411       .  A
C623        C628   1.520       .  S
C623        C624   1.405       .  A
C624        C625   1.409       .  A
C624        H629   1.082       .  S
C625        C626   1.425       .  A
C626        C630   1.520       .  S
C627        C632   1.414       .  A
C627        C636   1.400       .  A
C628        F644   1.382       .  S
C628        F645   1.382       .  S
C628        F646   1.384       .  S
C630        F641   1.385       .  S
C630        F642   1.383       .  S
C630        F643   1.383       .  S
C632        C637   1.520       .  S
C632        C633   1.405       .  A
C633        C634   1.406       .  A
C633        H638   1.083       .  S
C634        C635   1.422       .  A
C635        C639   1.520       .  S
C635        C636   1.406       .  A
C636        H640   1.083       .  S
C637        F650   1.385       .  S
C637        F651   1.382       .  S
C637        F652   1.382       .  S
C639        F647   1.383       .  S
C639        F648   1.383       .  S
C639        F649   1.385       .  S
C653        C654   1.401       .  A
C653        C658   1.406       .  A
C653        H663   1.083       .  S
C654        C659   1.485       .  S
C654        C655   1.417       .  A
C655        C660   1.520       .  S
C655        C656   1.408       .  A
C656        C657   1.403       .  A
C656        H661   1.083       .  S
C657        C658   1.417       .  A
C658        C662   1.519       .  S
C659        C664   1.405       .  A
C659        C668   1.388       .  A
C660        F676   1.382       .  S
C660        F677   1.382       .  S
C660        F678   1.385       .  S
C662        F673   1.382       .  S
C662        F674   1.385       .  S
C662        F675   1.384   1_545  S
C664        C669   1.521       .  S
C664        C665   1.408       .  A
C665        C666   1.428       .  A
C665        H670   1.072       .  S
C666        C667   1.459       .  A
C667        C671   1.535       .  S
C667        C668   1.407       .  A
C668        H672   1.083       .  S
C669        F682   1.385       .  S
C669        F683   1.382       .  S
C669        F684   1.382       .  S
C671        F679   1.380       .  S
C671        F680   1.374       .  S
C671        F681   1.386       .  S
C685        C686   1.401       .  A
C685        C690   1.405       .  A
C685        H695   1.084       .  S
C686        C691   1.481       .  S
C686        C687   1.416       .  A
C687        C692   1.521       .  S
C687        C688   1.406       .  A
C688        C689   1.406       .  A
C688        H693   1.083   1_455  S
C689        C690   1.418       .  A
C690        C694   1.518       .  S
C691        C696   1.405       .  A
C691        C700   1.388       .  A
C692        F708   1.382       .  S
C692        F709   1.382       .  S
C692        F710   1.385   1_455  S
C694        F705   1.385       .  S
C694        F706   1.382       .  S
C694        F707   1.383       .  S
C696        C701   1.520       .  S
C696        C697   1.407       .  A
C697        C698   1.429       .  A
C697        H702   1.075       .  S
C698        C699   1.451       .  A
C699        C703   1.527       .  S
C699        C700   1.407       .  A
C700        H704   1.082       .  S
C701        F714   1.384       .  S
C701        F715   1.382       .  S
C701        F716   1.382       .  S
C703        F711   1.366       .  S
C703        F712   1.378       .  S
C703        F713   1.385       .  S
C717        C718   1.400       .  A
C717        C722   1.406       .  A
C717        H727   1.083       .  S
C718        C723   1.482   1_655  S
C718        C719   1.415   1_645  A
C719        C724   1.518       .  S
C719        C720   1.405       .  A
C720        C721   1.404   1_455  A
C720        H725   1.083       .  S
C721        C722   1.420   1_565  A
C722        C726   1.520       .  S
C723        C728   1.415   1_545  A
C723        C732   1.399       .  A
C724        F740   1.382   1_565  S
C724        F741   1.382       .  S
C724        F742   1.385       .  S
C726        F737   1.382   1_545  S
C726        F738   1.385       .  S
C726        F739   1.384       .  S
C728        C733   1.519   1_455  S
C728        C729   1.407   1_565  A
C729        C730   1.405       .  A
C729        H734   1.083   1_545  S
C730        C731   1.423       .  A
C731        C735   1.521       .  S
C731        C732   1.406       .  A
C732        H736   1.083       .  S
C733        F746   1.384       .  S
C733        F747   1.382       .  S
C733        F748   1.383   1_655  S
C735        F743   1.384       .  S
C735        F744   1.384       .  S
C735        F745   1.383       .  S
C749        C750   1.401       .  A
C749        C754   1.405       .  A
C749        H759   1.084       .  S
C750        C755   1.479       .  S
C750        C751   1.411       .  A
C751        C756   1.519       .  S
C751        C752   1.407       .  A
C752        C753   1.409       .  A
C752        H757   1.083       .  S
C753        C754   1.420       .  A
C754        C758   1.519       .  S
C755        C760   1.403       .  A
C755        C764   1.389       .  A
C756        F772   1.383       .  S
C756        F773   1.381       .  S
C756        F774   1.384       .  S
C758        F769   1.385       .  S
C758        F770   1.383       .  S
C758        F771   1.383       .  S
C760        C765   1.521       .  S
C760        C761   1.401       .  A
C761        C762   1.430       .  A
C761        H766   1.079       .  S
C762        C763   1.460       .  A
C763        C767   1.536       .  S
C763        C764   1.408       .  A
C764        H768   1.086       .  S
C765        F778   1.385       .  S
C765        F779   1.383       .  S
C765        F780   1.381       .  S
C767        F775   1.364       .  S
C767        F776   1.381       .  S
C767        F777   1.387       .  S
C781        C782   1.387       .  A
C781        C786   1.411       .  A
C781        H791   1.085       .  S
C782        C787   1.489       .  S
C782        C783   1.403       .  A
C783        C788   1.519       .  S
C783        C784   1.409       .  A
C784        C785   1.429       .  A
C784        H789   1.077       .  S
C785        C786   1.459       .  A
C786        C790   1.530       .  S
C787        C792   1.416       .  A
C787        C796   1.401       .  A
C788        F804   1.383       .  S
C788        F805   1.382       .  S
C788        F806   1.385       .  S
C790        F801   1.387       .  S
C790        F802   1.376       .  S
C790        F803   1.371       .  S
C792        C797   1.522       .  S
C792        C793   1.405       .  A
C793        C794   1.406       .  A
C793        H798   1.082       .  S
C794        C795   1.427       .  A
C795        C799   1.521       .  S
C795        C796   1.413       .  A
C796        H800   1.083       .  S
C797        F810   1.384       .  S
C797        F811   1.382       .  S
C797        F812   1.382       .  S
C799        F807   1.385       .  S
C799        F808   1.383       .  S
C799        F809   1.383       .  S
C813        C814   1.399       .  A
C813        C818   1.406       .  A
C813        H823   1.083       .  S
C814        C819   1.478       .  S
C814        C815   1.413       .  A
C815        C820   1.521       .  S
C815        C816   1.405       .  A
C816        C817   1.406       .  A
C816        H821   1.083       .  S
C817        C818   1.422       .  A
C818        C822   1.520       .  S
C819        C824   1.413       .  A
C819        C828   1.401       .  A
C820        F836   1.382       .  S
C820        F837   1.382       .  S
C820        F838   1.384       .  S
C822        F833   1.385       .  S
C822        F834   1.382       .  S
C822        F835   1.383       .  S
C824        C829   1.519       .  S
C824        C825   1.405       .  A
C825        C826   1.406       .  A
C825        H830   1.083       .  S
C826        C827   1.419       .  A
C827        C831   1.520       .  S
C827        C828   1.404       .  A
C828        H832   1.083       .  S
C829        F842   1.385       .  S
C829        F843   1.382       .  S
C829        F844   1.382       .  S
C831        F839   1.383       .  S
C831        F840   1.384       .  S
C831        F841   1.384       .  S
C845        C846   1.401       .  A
C845        C850   1.407       .  A
C845        H855   1.083       .  S
C846        C851   1.483       .  S
C846        C847   1.415       .  A
C847        C852   1.520       .  S
C847        C848   1.407       .  A
C848        C849   1.406       .  A
C848        H853   1.083       .  S
C849        C850   1.420       .  A
C850        C854   1.519       .  S
C851        C856   1.414       .  A
C851        C860   1.403       .  A
C852        F868   1.382       .  S
C852        F869   1.382       .  S
C852        F870   1.385       .  S
C854        F865   1.384       .  S
C854        F866   1.384       .  S
C854        F867   1.383       .  S
C856        C861   1.520       .  S
C856        C857   1.403       .  A
C857        C858   1.405       .  A
C857        H862   1.083       .  S
C858        C859   1.420       .  A
C859        C863   1.519       .  S
C859        C860   1.409       .  A
C860        H864   1.083       .  S
C861        F874   1.385       .  S
C861        F875   1.381       .  S
C861        F876   1.382       .  S
C863        F871   1.382       .  S
C863        F872   1.384       .  S
C863        F873   1.385       .  S
