geometry optimzed in LAMMPS
_audit_creation_date              2020-11-30 
_audit_creation_method            'lammps2cif' 
_symmetry_space_group_name_H-M    'P1' 
_symmetry_Int_Tables_number       1 
_symmetry_cell_setting            triclinic 
loop_ 
_symmetry_equiv_pos_as_xyz 
  x,y,z 
_cell_length_a                    38.77304165 
_cell_length_b                    40.82357585273085 
_cell_length_c                    33.40926843764924 
_cell_angle_alpha                 89.99389907059809 
_cell_angle_beta                  90.00525368013992 
_cell_angle_gamma                 101.01820040428129 
loop_ 
_atom_site_label 
_atom_site_type_symbol 
_atom_site_fract_x 
_atom_site_fract_y 
_atom_site_fract_z 
_atom_site_charge 
C1          C  0.12164102  0.98364064  0.21280798     0.05000
C2          C  0.15950647  0.48668063  0.21290606    -0.11200
C3          C  0.17980507  0.49281180  0.24837635     0.02500
C4          C  0.16233229  0.49910652  0.28399110    -0.09700
C5          C  0.12563637  0.99667336  0.28370494     0.05000
C6          C  0.10569809  0.99016240  0.24871940    -0.09100
H7          H  0.17112659  0.48072041  0.18508971     0.10600
H8          H  0.17656168  0.50466057  0.31174623     0.08100
H9          H  0.07768194  0.98993572  0.24951110     0.07900
C10         C  0.27353742  0.49196824  0.21184876     0.05000
C11         C  0.29030375  0.48622522  0.24767828    -0.11200
C12         C  0.27171095  0.48324475  0.28394368     0.02500
C13         C  0.23593933  0.48519438  0.28404200    -0.09700
C14         C  0.21851098  0.49157148  0.24841188     0.05000
C15         C  0.23830398  0.49563094  0.21254654    -0.09100
H16         H  0.31763728  0.48370789  0.24727554     0.10600
H17         H  0.22191108  0.48095320  0.31208377     0.08100
H18         H  0.22662292  0.50140116  0.18467304     0.07900
C19         C  0.43432253  0.15575468  0.20964005     0.05000
C20         C  0.42864641  0.13751389  0.24504087    -0.11200
C21         C  0.42488526  0.15338998  0.28122970     0.02500
C22         C  0.42589729  0.18795439  0.28204935    -0.09700
C23         C  0.43209021  0.20728220  0.24654513     0.05000
C24         C  0.43676043  0.19048536  0.21033574    -0.09100
H25         H  0.42756353  0.11074628  0.24449259     0.10600
H26         H  0.42164297  0.19931177  0.31038784     0.08100
H27         H  0.44272690  0.20405705  0.18262305     0.07900
C28         C  0.42869384  0.29642086  0.21257147     0.05000
C29         C  0.42672531  0.26175281  0.21205810    -0.11200
C30         C  0.43369472  0.24451784  0.24715722     0.02500
C31         C  0.44183413  0.26338817  0.28279662    -0.09700
C32         C  0.44240895  0.29789482  0.28308763     0.05000
C33         C  0.43632865  0.31414055  0.24798002    -0.09100
H34         H  0.41924882  0.24858060  0.18438463     0.10600
H35         H  0.44782459  0.25173439  0.31031876     0.08100
H36         H  0.43707263  0.34087208  0.24833538     0.07900
O37         O  0.44097515  0.00964279  0.09683312    -0.78300
O38         O  0.39279703  0.48837501  0.45218955    -0.78300
O39         O  0.44223709  0.03981722  0.45239586    -0.78300
O40         O  0.36597791  0.44379285  0.03817871    -0.78300
O41         O  0.44077041  0.00986430  0.39622346    -0.78400
O42         O  0.39344972  0.49531752  0.04020703    -0.78300
O43         O  0.37508133  0.43465297  0.45411172    -0.78300
O44         O  0.45324612  0.03925121  0.04061249    -0.78300
C45         C  0.44672257  0.03748521  0.07873772     1.11400
C46         C  0.37007789  0.46314736  0.44353294     1.11300
C47         C  0.43877669  0.03701242  0.41381446     1.11400
C48         C  0.36684106  0.47372059  0.04859708     1.11300
O49         O  0.41678165  0.44105611  0.08452264    -0.78300
O50         O  0.48842860  0.47434727  0.42844272    -0.78400
O51         O  0.00973727  0.00351237  0.04045706    -0.78300
O52         O  0.43791517  0.40619475  0.45674477    -0.78300
O53         O  0.42855561  0.44091356  0.40968181    -0.78300
O54         O  0.48079734  0.46421453  0.06738135    -0.78300
O55         O  0.41944881  0.40344662  0.03828920    -0.78300
O56         O  0.01332982  0.02058165  0.45948170    -0.78300
Co57       Co  0.43864481  0.48111315  0.05148408     1.51200
Co58       Co  0.44188002  0.48291278  0.44271417     1.51700
Co59       Co  0.47226718  0.02208579  0.49634535     1.51600
Co60       Co  0.40872899  0.42385797  0.49640109     1.51500
O61         O  0.44677914  0.46826512  0.49704912    -1.40200
C62         C  0.41831951  0.41132044  0.07462146     1.11300
C63         C  0.01270940  0.49678519  0.43344645     1.11400
C64         C  0.01126732  0.48257777  0.06182043     1.11400
C65         C  0.43610141  0.41320802  0.42023607     1.11300
C66         C  0.44720653  0.31758742  0.31911741    -0.16700
C67         C  0.44783640  0.33886267  0.34429907     0.07400
C68         C  0.44544663  0.36599656  0.36972840     0.09300
C69         C  0.44167010  0.38877028  0.39126242    -0.17500
C70         C  0.41826047  0.38585263  0.10423805    -0.16700
C71         C  0.41865516  0.36264533  0.12645451     0.07400
C72         C  0.42017217  0.33562849  0.15237159     0.09300
C73         C  0.42297584  0.31500015  0.17737354    -0.17500
C74         C  0.42170805  0.13352879  0.31725019    -0.16700
C75         C  0.42187984  0.11322329  0.34350450     0.07400
C76         C  0.42512923  0.08715745  0.37033793     0.09300
C77         C  0.43022733  0.06425102  0.39096092    -0.17500
C78         C  0.43778772  0.13786526  0.17308896    -0.16700
C79         C  0.43970438  0.11816870  0.14661800     0.07400
C80         C  0.44156951  0.09155495  0.12010603     0.09300
C81         C  0.44351024  0.06724921  0.10028118    -0.17500
C82         C  0.28915660  0.47771510  0.32116900    -0.16700
C83         C  0.30416722  0.47365537  0.35213681     0.07400
C84         C  0.32339633  0.46943088  0.38749908     0.09300
C85         C  0.34246413  0.46628679  0.41546960    -0.17500
C86         C  0.34143435  0.48160291  0.07686148    -0.16700
C87         C  0.32397823  0.48656797  0.10553104     0.07400
C88         C  0.30623164  0.49055981  0.14196230     0.09300
C89         C  0.29175197  0.49229634  0.17384773    -0.17500
C90         C  0.10768684  0.50078072  0.32165970    -0.16700
C91         C  0.09004691  0.50095102  0.35149463     0.07400
C92         C  0.06648772  0.49962177  0.38418299     0.09300
C93         C  0.04362008  0.49809308  0.40911148    -0.17500
C94         C  0.04033497  0.47914425  0.08738692    -0.16700
C95         C  0.06211744  0.47850454  0.11317804     0.07400
C96         C  0.08521029  0.47986787  0.14637230     0.09300
C97         C  0.10333788  0.48251852  0.17613971    -0.17500
C98         C  0.12327736  0.98828343  0.71468462     0.05000
C99         C  0.16021758  0.48825135  0.71005009    -0.11200
C100        C  0.17794838  0.48198951  0.74550514     0.02500
C101        C  0.15796810  0.47607940  0.78121641    -0.09700
C102        C  0.12300635  0.97922828  0.78654464     0.05000
C103        C  0.10530574  0.98425374  0.75122047    -0.09100
H104        H  0.17426173  0.49383030  0.68217360     0.10600
H105        H  0.16984789  0.47031564  0.80894910     0.08100
H106        H  0.07750558  0.98500864  0.75215321     0.07900
C107        C  0.27079368  0.47670000  0.70913737     0.05000
C108        C  0.28981922  0.48112269  0.74510024    -0.11200
C109        C  0.27283662  0.48586312  0.78112966     0.02500
C110        C  0.23693906  0.48712124  0.78090200    -0.09700
C111        C  0.21687330  0.48180080  0.74529045     0.05000
C112        C  0.23449226  0.47619192  0.70954039    -0.09100
H113        H  0.31768461  0.48065564  0.74508862     0.10600
H114        H  0.22506905  0.49234536  0.80886253     0.08100
H115        H  0.22028985  0.47104289  0.68169380     0.07900
C116        C  0.42970057  0.15360200  0.71288638     0.05000
C117        C  0.43445186  0.13782533  0.74883564    -0.11200
C118        C  0.44028461  0.15598901  0.78424199     0.02500
C119        C  0.44190741  0.19065660  0.78378070    -0.09700
C120        C  0.43622197  0.20744143  0.74778423     0.05000
C121        C  0.42981619  0.18803798  0.71230321    -0.09100
H122        H  0.43396738  0.11114462  0.74918992     0.10600
H123        H  0.44805822  0.20411489  0.81150522     0.08100
H124        H  0.42473005  0.19917038  0.68411627     0.07900
C125        C  0.44293198  0.29799922  0.71128666     0.05000
C126        C  0.44276037  0.26352329  0.71126526    -0.11200
C127        C  0.43712527  0.24470034  0.74732126     0.02500
C128        C  0.43205210  0.26206846  0.78304452    -0.09700
C129        C  0.43365212  0.29670564  0.78272171     0.05000
C130        C  0.43896596  0.31430487  0.74698888    -0.09100
H131        H  0.44718979  0.25194609  0.68315050     0.10600
H132        H  0.42628007  0.24907686  0.81113358     0.08100
H133        H  0.43939548  0.34098973  0.74686510     0.07900
O134        O  0.44185862  0.00921822  0.59618262    -0.78300
O135        O  0.39403780  0.49517535  0.95323771    -0.78300
O136        O  0.45433412  0.03855709  0.95323974    -0.78300
O137        O  0.37374655  0.43474061  0.53690315    -0.78300
O138        O  0.44637534  0.00806749  0.89740940    -0.78400
O139        O  0.39118170  0.48849282  0.53898774    -0.78300
O140        O  0.36668826  0.44358105  0.95545574    -0.78300
O141        O  0.44237877  0.03952874  0.54050138    -0.78300
C142        C  0.43991380  0.03660234  0.57913126     1.11400
C143        C  0.36755970  0.47344132  0.94474089     1.11300
C144        C  0.45075209  0.03625857  0.91470290     1.11400
C145        C  0.36842520  0.46317551  0.54722119     1.11300
O146        O  0.42544756  0.44114043  0.58390245    -0.78300
O147        O  0.48154131  0.46363554  0.92872522    -0.78400
O148        O  0.01194156  0.01933861  0.53919657    -0.78300
O149        O  0.42018141  0.40322489  0.95709797    -0.78300
O150        O  0.41815703  0.44053990  0.91031805    -0.78300
O151        O  0.48570467  0.47443253  0.56749822    -0.78300
O152        O  0.43646254  0.40632123  0.53776634    -0.78300
O153        O  0.01272851  0.00401164  0.96069448    -0.78300
Co154      Co  0.43984496  0.48307580  0.55090369     1.51200
Co155      Co  0.43936165  0.48082829  0.94329720     1.51700
Co156      Co  0.47777156  0.01443042  0.99759301     1.51600
Co157      Co  0.39652710  0.42644599  0.99726284     1.51500
O158        O  0.44144742  0.46486998  0.99752867    -1.40200
C159        C  0.43335399  0.41340454  0.57408392     1.11300
C160        C  0.01163519  0.48126927  0.93262297     1.11400
C161        C  0.01199295  0.49679831  0.56182826     1.11400
C162        C  0.42003840  0.41097643  0.92063632     1.11300
C163        C  0.42929154  0.31532316  0.81835802    -0.16700
C164        C  0.42649702  0.33589407  0.84344568     0.07400
C165        C  0.42383117  0.36269605  0.86927264     0.09300
C166        C  0.42188161  0.38566936  0.89131604    -0.17500
C167        C  0.43806979  0.38905171  0.60362747    -0.16700
C168        C  0.44170654  0.36626326  0.62526279     0.07400
C169        C  0.44471321  0.33904496  0.65038077     0.09300
C170        C  0.44536823  0.31768394  0.67521129    -0.17500
C171        C  0.44452604  0.13791236  0.82049350    -0.16700
C172        C  0.44658729  0.11761203  0.84626443     0.07400
C173        C  0.44793868  0.09030983  0.87197901     0.09300
C174        C  0.44893573  0.06574415  0.89179001    -0.17500
C175        C  0.42628530  0.13370687  0.67686300    -0.16700
C176        C  0.42610336  0.11327431  0.65066385     0.07400
C177        C  0.42854127  0.08704607  0.62370598     0.09300
C178        C  0.43262248  0.06399300  0.60270849    -0.17500
C179        C  0.29169286  0.48802184  0.81885368    -0.16700
C180        C  0.30659881  0.48774789  0.85071402     0.07400
C181        C  0.32468575  0.48517207  0.88727383     0.09300
C182        C  0.34227313  0.48100486  0.91614050    -0.17500
C183        C  0.34080600  0.46592947  0.57534694    -0.16700
C184        C  0.32199030  0.46796464  0.60386413     0.07400
C185        C  0.30319792  0.47038120  0.64000826     0.09300
C186        C  0.28840430  0.47283660  0.67154743    -0.17500
C187        C  0.10257689  0.47416737  0.81893812    -0.16700
C188        C  0.08497603  0.47344554  0.84898145     0.07400
C189        C  0.06238016  0.47450155  0.88222245     0.09300
C190        C  0.04082107  0.47683585  0.90775191    -0.17500
C191        C  0.04279090  0.49729112  0.58619561    -0.16700
C192        C  0.06529019  0.49672011  0.61115514     0.07400
C193        C  0.08836459  0.49492854  0.64372742     0.09300
C194        C  0.10571445  0.49238207  0.67328624    -0.17500
C195        C  0.12345596  0.48732479  0.21292145     0.05000
C196        C  0.15770968  0.98287231  0.21219242    -0.11200
C197        C  0.17863723  0.99003609  0.24711483     0.02500
C198        C  0.16192493  0.99752561  0.28266331    -0.09700
C199        C  0.12594535  0.49805297  0.28439810     0.05000
C200        C  0.10674736  0.49264676  0.24876857    -0.09100
H201        H  0.16892011  0.97616655  0.18445849     0.10600
H202        H  0.17675834  0.00393196  0.30989073     0.08100
H203        H  0.07869266  0.49224291  0.24901340     0.07900
C204        C  0.27218631  0.99058202  0.20964507     0.05000
C205        C  0.28948160  0.98516516  0.24527908    -0.11200
C206        C  0.27121217  0.98176642  0.28179543     0.02500
C207        C  0.23524517  0.98305267  0.28222740    -0.09700
C208        C  0.21734395  0.98904639  0.24674460     0.05000
C209        C  0.23672588  0.99337532  0.21068843    -0.09100
H210        H  0.31699157  0.98328877  0.24453337     0.10600
H211        H  0.22140508  0.97865530  0.31039039     0.08100
H212        H  0.22452988  0.99882471  0.18299988     0.07900
C213        C  0.43409265  0.65598340  0.21032420     0.05000
C214        C  0.42979461  0.63830980  0.24619677    -0.11200
C215        C  0.42708979  0.65468372  0.28227803     0.02500
C216        C  0.42788377  0.68919961  0.28260351    -0.09700
C217        C  0.43283702  0.70803351  0.24664139     0.05000
C218        C  0.43615837  0.69071505  0.21042466    -0.09100
H219        H  0.42902757  0.61158483  0.24609312     0.10600
H220        H  0.42451756  0.70092945  0.31096980     0.08100
H221        H  0.44101620  0.70393239  0.18232620     0.07900
C222        C  0.42926781  0.79727926  0.21274551     0.05000
C223        C  0.42676667  0.76249136  0.21229693    -0.11200
C224        C  0.43499209  0.74535893  0.24697211     0.02500
C225        C  0.44496896  0.76442597  0.28209006    -0.09700
C226        C  0.44611175  0.79899419  0.28236932     0.05000
C227        C  0.43886771  0.81515949  0.24766388    -0.09100
H228        H  0.41789356  0.74912742  0.18511814     0.10600
H229        H  0.45184773  0.75285476  0.30929413     0.08100
H230        H  0.43991941  0.84193885  0.24808270     0.07900
O231        O  0.44349367  0.50933277  0.09706924    -0.78300
O232        O  0.39166899  0.98732043  0.45190187    -0.78300
O233        O  0.44425757  0.54055646  0.45281926    -0.78300
O234        O  0.36453960  0.94480626  0.03699301    -0.78300
O235        O  0.44244489  0.51035561  0.39682808    -0.78400
O236        O  0.39259522  0.99611334  0.03839439    -0.78300
O237        O  0.37415259  0.93362397  0.45390146    -0.78300
O238        O  0.45193279  0.53945798  0.04088475    -0.78300
C239        C  0.44736268  0.53731841  0.07935447     1.11400
C240        C  0.36915312  0.96204485  0.44292994     1.11300
C241        C  0.44105344  0.53771663  0.41425368     1.11400
C242        C  0.36560121  0.97491256  0.04661075     1.11300
O243        O  0.41407075  0.94157055  0.08450227    -0.78300
O244        O  0.48741621  0.97415329  0.42728723    -0.78400
O245        O  0.01391974  0.50574764  0.03667574    -0.78300
O246        O  0.43711322  0.90543891  0.45545212    -0.78300
O247        O  0.42769319  0.94043272  0.40870618    -0.78300
O248        O  0.47860342  0.96425377  0.06975627    -0.78300
O249        O  0.41683278  0.90338605  0.03895390    -0.78300
O250        O  0.01038196  0.51956513  0.45788328    -0.78300
Co251      Co  0.43713512  0.98131996  0.05156553     1.51200
Co252      Co  0.44083763  0.98232461  0.44189828     1.51700
Co253      Co  0.47342131  0.52257837  0.49729955     1.51600
Co254      Co  0.40839288  0.92288230  0.49576128     1.51500
O255        O  0.44628729  0.96744356  0.49590807    -1.40200
C256        C  0.41536055  0.91164566  0.07515364     1.11300
C257        C  0.01622595  0.99802361  0.43498362     1.11400
C258        C  0.00630382  0.97972250  0.06482376     1.11400
C259        C  0.43566419  0.91285629  0.41903691     1.11300
C260        C  0.45170699  0.81870385  0.31830921    -0.16700
C261        C  0.45185799  0.83993933  0.34341186     0.07400
C262        C  0.44794632  0.86679719  0.36854791     0.09300
C263        C  0.44263880  0.88912825  0.38990466    -0.17500
C264        C  0.41486351  0.88645978  0.10530337    -0.16700
C265        C  0.41545904  0.86346867  0.12784592     0.07400
C266        C  0.41783920  0.83654349  0.15367084     0.09300
C267        C  0.42180548  0.81585897  0.17817837    -0.17500
C268        C  0.42518545  0.63533620  0.31861479    -0.16700
C269        C  0.42589983  0.61505838  0.34475686     0.07400
C270        C  0.42904058  0.58864442  0.37107727     0.09300
C271        C  0.43352276  0.56530685  0.39130227    -0.17500
C272        C  0.43708090  0.63752089  0.17405201    -0.16700
C273        C  0.43913665  0.61743029  0.14804229     0.07400
C274        C  0.44148162  0.59070307  0.12181921     0.09300
C275        C  0.44381848  0.56660169  0.10176201    -0.17500
C276        C  0.28917752  0.97653094  0.31889939    -0.16700
C277        C  0.30438125  0.97256834  0.34985019     0.07400
C278        C  0.32344613  0.96829149  0.38546758     0.09300
C279        C  0.34205495  0.96507264  0.41393956    -0.17500
C280        C  0.33997342  0.98329038  0.07416623    -0.16700
C281        C  0.32224204  0.98788526  0.10270971     0.07400
C282        C  0.30445652  0.99092157  0.13932313     0.09300
C283        C  0.29016672  0.99176315  0.17145851    -0.17500
C284        C  0.10833829  0.00077488  0.32114226    -0.16700
C285        C  0.09180775  0.00191387  0.35158918     0.07400
C286        C  0.06946113  0.00130217  0.38519123     0.09300
C287        C  0.04716317  0.99989427  0.41070699    -0.17500
C288        C  0.03495028  0.97529130  0.09056603    -0.16700
C289        C  0.05719170  0.97413494  0.11569366     0.07400
C290        C  0.08146035  0.97527293  0.14775485     0.09300
C291        C  0.10067509  0.97810529  0.17664596    -0.17500
C292        C  0.12395482  0.48787892  0.71011351     0.05000
C293        C  0.15939272  0.98814620  0.71356149    -0.11200
C294        C  0.17793481  0.98247122  0.74857362     0.02500
C295        C  0.15884423  0.97754113  0.78505294    -0.09700
C296        C  0.12205359  0.47734030  0.78167276     0.05000
C297        C  0.10510431  0.48280578  0.74600951    -0.09100
H298        H  0.17271900  0.99292988  0.68514338     0.10600
H299        H  0.17133086  0.97214178  0.81254776     0.08100
H300        H  0.07722481  0.48326282  0.74622067     0.07900
C301        C  0.27008408  0.97693689  0.70933305     0.05000
C302        C  0.28991822  0.98218951  0.74467806    -0.11200
C303        C  0.27370820  0.98735962  0.78105073     0.02500
C304        C  0.23776865  0.98823416  0.78188887    -0.09700
C305        C  0.21684242  0.98216811  0.74704220     0.05000
C306        C  0.23367761  0.97608030  0.71082126    -0.09100
H307        H  0.31783777  0.98200443  0.74393652     0.10600
H308        H  0.22655398  0.99382009  0.81010466     0.08100
H309        H  0.21882770  0.97035822  0.68349653     0.07900
C310        C  0.42877077  0.65500477  0.71154114     0.05000
C311        C  0.43270222  0.63861015  0.74732839    -0.11200
C312        C  0.43844864  0.65629700  0.78312098     0.02500
C313        C  0.44076550  0.69107183  0.78316975    -0.09700
C314        C  0.43604436  0.70837596  0.74729241     0.05000
C315        C  0.42974743  0.68954241  0.71145987    -0.09100
H316        H  0.43162083  0.61183842  0.74725823     0.10600
H317        H  0.44665374  0.70428616  0.81112788     0.08100
H318        H  0.42531440  0.70126911  0.68341291     0.07900
C319        C  0.44589002  0.79931293  0.71192329     0.05000
C320        C  0.44573604  0.76486843  0.71186612    -0.11200
C321        C  0.43755232  0.74560840  0.74723712     0.02500
C322        C  0.43023490  0.76240257  0.78249447    -0.09700
C323        C  0.43176263  0.79701749  0.78236618     0.05000
C324        C  0.43937104  0.81512622  0.74719015    -0.09100
H325        H  0.45200397  0.75353463  0.68424232     0.10600
H326        H  0.42279114  0.74889796  0.80996210     0.08100
H327        H  0.43971526  0.84179297  0.74713516     0.07900
O328        O  0.43881417  0.51056217  0.59645698    -0.78300
O329        O  0.39505051  0.99574643  0.95306534    -0.78300
O330        O  0.45292009  0.53923632  0.95312767    -0.78300
O331        O  0.37411747  0.93357716  0.53734606    -0.78300
O332        O  0.44502197  0.50868267  0.89730818    -0.78400
O333        O  0.39204548  0.98727239  0.54076721    -0.78300
O334        O  0.36650033  0.94456877  0.95466832    -0.78300
O335        O  0.44307707  0.54083186  0.54037708    -0.78300
C336        C  0.43846215  0.53801572  0.57876805     1.11400
C337        C  0.36821775  0.97460355  0.94419741     1.11300
C338        C  0.44902973  0.53685002  0.91459833     1.11400
C339        C  0.36919639  0.96192170  0.54865525     1.11300
O340        O  0.42764622  0.93994290  0.58310705    -0.78300
O341        O  0.48143214  0.96192036  0.92903618    -0.78400
O342        O  0.00990433  0.51978572  0.53752938    -0.78300
O343        O  0.41873607  0.90283812  0.95749320    -0.78300
O344        O  0.41776447  0.94021986  0.91051616    -0.78300
O345        O  0.48772594  0.97312287  0.56398506    -0.78300
O346        O  0.43689304  0.90505919  0.53622097    -0.78300
O347        O  0.01413159  0.50514057  0.95679197    -0.78300
Co348      Co  0.44119299  0.98185091  0.55014968     1.51200
Co349      Co  0.43978790  0.98022490  0.94346605     1.51700
Co350      Co  0.47707880  0.51566714  0.99755683     1.51600
Co351      Co  0.39523838  0.92674130  0.99705729     1.51500
O352        O  0.44099573  0.96433340  0.99791034    -1.40200
C353        C  0.43539950  0.91231706  0.57270375     1.11300
C354        C  0.01100253  0.98028926  0.93642581     1.11400
C355        C  0.01370505  0.99611124  0.56325203     1.11400
C356        C  0.41864175  0.91047403  0.92098777     1.11300
C357        C  0.42553641  0.81510144  0.81775585    -0.16700
C358        C  0.42223278  0.83527428  0.84310703     0.07400
C359        C  0.42010077  0.86184953  0.86943193     0.09300
C360        C  0.41917649  0.88485781  0.89175521    -0.17500
C361        C  0.44206581  0.88845732  0.60194765    -0.16700
C362        C  0.44693973  0.86644581  0.62413828     0.07400
C363        C  0.45042693  0.84011889  0.65043292     0.09300
C364        C  0.45040133  0.81921684  0.67599225    -0.17500
C365        C  0.44199318  0.63770954  0.81920522    -0.16700
C366        C  0.44378990  0.61742730  0.84511049     0.07400
C367        C  0.44522985  0.59043594  0.87133945     0.09300
C368        C  0.44657649  0.56616935  0.89159446    -0.17500
C369        C  0.42519458  0.63565444  0.67513773    -0.16700
C370        C  0.42470901  0.61551979  0.64857752     0.07400
C371        C  0.42684409  0.58923410  0.62165613     0.09300
C372        C  0.43088737  0.56585376  0.60123969    -0.17500
C373        C  0.29334029  0.99023411  0.81819728    -0.16700
C374        C  0.30843022  0.99027182  0.84993344     0.07400
C375        C  0.32630690  0.98760821  0.88653708     0.09300
C376        C  0.34351633  0.98298632  0.91549760    -0.17500
C377        C  0.34136020  0.96457412  0.57668697    -0.16700
C378        C  0.32199649  0.96685006  0.60469692     0.07400
C379        C  0.30235199  0.96971834  0.64020012     0.09300
C380        C  0.28716326  0.97257813  0.67143634    -0.17500
C381        C  0.10416124  0.97633597  0.82431410    -0.16700
C382        C  0.08647260  0.97517066  0.85438917     0.07400
C383        C  0.06322623  0.97510634  0.88733200     0.09300
C384        C  0.04091760  0.97642344  0.91236480    -0.17500
C385        C  0.04389882  0.99656092  0.58857035    -0.16700
C386        C  0.06552819  0.99598391  0.61453497     0.07400
C387        C  0.08753972  0.99436930  0.64812262     0.09300
C388        C  0.10445049  0.99217235  0.67811240    -0.17500
C389        C  0.62297329  0.98250765  0.21257389     0.05000
C390        C  0.65916286  0.48310741  0.21187196    -0.11200
C391        C  0.67942167  0.48887026  0.24741050     0.02500
C392        C  0.66203048  0.49539751  0.28299226    -0.09700
C393        C  0.62551095  0.99317083  0.28405970     0.05000
C394        C  0.60632146  0.98788221  0.24843433    -0.09100
H395        H  0.67069162  0.47699740  0.18408047     0.10600
H396        H  0.67623236  0.50072825  0.31080140     0.08100
H397        H  0.57833172  0.98782545  0.24865238     0.07900
C398        C  0.77343675  0.48875210  0.21120302     0.05000
C399        C  0.79027426  0.48351266  0.24717274    -0.11200
C400        C  0.77152449  0.48029538  0.28333802     0.02500
C401        C  0.73558322  0.48151214  0.28320298    -0.09700
C402        C  0.71810996  0.48754020  0.24747833     0.05000
C403        C  0.73798238  0.49170179  0.21167078    -0.09100
H404        H  0.81779925  0.48166175  0.24697274     0.10600
H405        H  0.72151267  0.47716260  0.31121335     0.08100
H406        H  0.72627681  0.49720055  0.18371716     0.07900
C407        C  0.93705123  0.15575661  0.21069493     0.05000
C408        C  0.93197146  0.13777355  0.24631311    -0.11200
C409        C  0.92792041  0.15375891  0.28231498     0.02500
C410        C  0.92810745  0.18814992  0.28280689    -0.09700
C411        C  0.93399218  0.20737546  0.24719804     0.05000
C412        C  0.93877475  0.19045736  0.21104976    -0.09100
H413        H  0.93145481  0.11108889  0.24606279     0.10600
H414        H  0.92350647  0.19942514  0.31107521     0.08100
H415        H  0.94425391  0.20387446  0.18317286     0.07900
C416        C  0.93018916  0.29669788  0.21358788     0.05000
C417        C  0.92872211  0.26205792  0.21273957    -0.11200
C418        C  0.93524757  0.24461172  0.24787822     0.02500
C419        C  0.94258941  0.26328848  0.28380105    -0.09700
C420        C  0.94258577  0.29766556  0.28441121     0.05000
C421        C  0.93689562  0.31411649  0.24933262    -0.09100
H422        H  0.92197830  0.24908833  0.18478908     0.10600
H423        H  0.94840026  0.25162465  0.31137686     0.08100
H424        H  0.93721307  0.34077502  0.24996302     0.07900
O425        O  0.93990888  0.00751310  0.09735008    -0.78300
O426        O  0.89118714  0.48808414  0.45350509    -0.78300
O427        O  0.94508610  0.04048065  0.45414063    -0.78300
O428        O  0.86746755  0.44345838  0.03798203    -0.78300
O429        O  0.94427041  0.01099372  0.39770757    -0.78400
O430        O  0.89460501  0.49514794  0.03980675    -0.78300
O431        O  0.87331238  0.43441403  0.45585597    -0.78300
O432        O  0.95030372  0.03795319  0.04156305    -0.78300
C433        C  0.94515608  0.03568612  0.07992893     1.11400
C434        C  0.86840118  0.46287189  0.44504044     1.11300
C435        C  0.94223758  0.03803122  0.41550203     1.11400
C436        C  0.86809913  0.47339262  0.04822314     1.11300
O437        O  0.91822815  0.44107274  0.08428053    -0.78300
O438        O  0.98661266  0.47426753  0.42803578    -0.78400
O439        O  0.51226554  0.00380455  0.03809327    -0.78300
O440        O  0.93595572  0.40581941  0.45756910    -0.78300
O441        O  0.92633433  0.44044199  0.41049150    -0.78300
O442        O  0.98204509  0.46436040  0.06702879    -0.78300
O443        O  0.92109048  0.40328762  0.03829453    -0.78300
O444        O  0.51063722  0.01983013  0.45659148    -0.78300
Co445      Co  0.93986607  0.48107381  0.05095822     1.51200
Co446      Co  0.94011782  0.48263230  0.44309235     1.51700
Co447      Co  0.97434263  0.02238263  0.49847912     1.51600
Co448      Co  0.90740453  0.42369153  0.49763412     1.51500
O449        O  0.94563797  0.46804147  0.49735293    -1.40200
C450        C  0.91992796  0.41131260  0.07460496     1.11300
C451        C  0.51449156  0.49687851  0.43376590     1.11400
C452        C  0.50993040  0.48266928  0.06246873     1.11400
C453        C  0.93383471  0.41272633  0.42108221     1.11300
C454        C  0.94633331  0.31698125  0.32072987    -0.16700
C455        C  0.94614068  0.33809114  0.34592337     0.07400
C456        C  0.94308031  0.36523626  0.37100888     0.09300
C457        C  0.93912500  0.38814246  0.39220801    -0.17500
C458        C  0.92003362  0.38602448  0.10450208    -0.16700
C459        C  0.92054761  0.36306658  0.12712346     0.07400
C460        C  0.92212544  0.33623830  0.15340568     0.09300
C461        C  0.92482854  0.31556366  0.17843841    -0.17500
C462        C  0.92529113  0.13425081  0.31855316    -0.16700
C463        C  0.92588140  0.11429440  0.34507950     0.07400
C464        C  0.92934115  0.08847416  0.37212401     0.09300
C465        C  0.93425611  0.06553551  0.39276531    -0.17500
C466        C  0.94030764  0.13746130  0.17434808    -0.16700
C467        C  0.94157389  0.11708318  0.14843273     0.07400
C468        C  0.94219692  0.08979213  0.12245347     0.09300
C469        C  0.94295490  0.06524661  0.10251279    -0.17500
C470        C  0.78899274  0.47555706  0.32079684    -0.16700
C471        C  0.80371871  0.47218991  0.35216053     0.07400
C472        C  0.82241649  0.46865401  0.38811354     0.09300
C473        C  0.84106102  0.46587853  0.41658829    -0.17500
C474        C  0.84251908  0.48104572  0.07640505    -0.16700
C475        C  0.82477250  0.48542876  0.10505677     0.07400
C476        C  0.80667656  0.48858134  0.14147898     0.09300
C477        C  0.79193470  0.48965826  0.17332377    -0.17500
C478        C  0.60770717  0.49853154  0.32051163    -0.16700
C479        C  0.59052964  0.49945714  0.35058303     0.07400
C480        C  0.56767708  0.49905116  0.38381857     0.09300
C481        C  0.54528659  0.49809067  0.40923682    -0.17500
C482        C  0.53922275  0.47887721  0.08748830    -0.16700
C483        C  0.56140566  0.47776521  0.11267095     0.07400
C484        C  0.58494878  0.47843474  0.14532988     0.09300
C485        C  0.60326097  0.48044800  0.17491306    -0.17500
C486        C  0.62292869  0.98832442  0.71046842     0.05000
C487        C  0.65851279  0.48734608  0.71237875    -0.11200
C488        C  0.67669481  0.48139317  0.74761934     0.02500
C489        C  0.65701803  0.47536346  0.78354135    -0.09700
C490        C  0.62130612  0.97714262  0.78196155     0.05000
C491        C  0.60418261  0.98279373  0.74643672    -0.09100
H492        H  0.67221786  0.49309649  0.68433587     0.10600
H493        H  0.66914950  0.46983967  0.81120026     0.08100
H494        H  0.57626192  0.98304421  0.74680877     0.07900
C495        C  0.76973894  0.47805056  0.71001728     0.05000
C496        C  0.78888107  0.48186893  0.74590521    -0.11200
C497        C  0.77194923  0.48556140  0.78227120     0.02500
C498        C  0.73596392  0.48641927  0.78249738    -0.09700
C499        C  0.71574780  0.48170474  0.74694392     0.05000
C500        C  0.73336892  0.47713842  0.71080384    -0.09100
H501        H  0.81680015  0.48166188  0.74557961     0.10600
H502        H  0.72420194  0.49087367  0.81079481     0.08100
H503        H  0.71915251  0.47237475  0.68292999     0.07900
C504        C  0.93045451  0.15398219  0.71147281     0.05000
C505        C  0.93645449  0.13797278  0.74688953    -0.11200
C506        C  0.94335226  0.15588458  0.78239431     0.02500
C507        C  0.94481243  0.19057443  0.78244675    -0.09700
C508        C  0.93810537  0.20749360  0.74693023     0.05000
C509        C  0.93062358  0.18838565  0.71144599    -0.09100
H510        H  0.93593447  0.11128633  0.74677001     0.10600
H511        H  0.95147722  0.20403520  0.81011060     0.08100
H512        H  0.92463979  0.19980939  0.68375238     0.07900
C513        C  0.94453282  0.29809161  0.71137733     0.05000
C514        C  0.94520266  0.26377937  0.71120680    -0.11200
C515        C  0.93867570  0.24459856  0.74689110     0.02500
C516        C  0.93208154  0.26132900  0.78250034    -0.09700
C517        C  0.93268121  0.29582035  0.78237717     0.05000
C518        C  0.93875176  0.31381931  0.74695183    -0.09100
H519        H  0.95085177  0.25247912  0.68330628     0.10600
H520        H  0.92589854  0.24783756  0.81023269     0.08100
H521        H  0.93847321  0.34037644  0.74696976     0.07900
O522        O  0.94008306  0.00870154  0.59739242    -0.78300
O523        O  0.89496873  0.49456134  0.95265609    -0.78300
O524        O  0.95373912  0.03851392  0.95370196    -0.78300
O525        O  0.87299507  0.43475034  0.53879003    -0.78300
O526        O  0.94780737  0.00828975  0.89762567    -0.78400
O527        O  0.89071335  0.48842749  0.54026844    -0.78300
O528        O  0.86778187  0.44291037  0.95543319    -0.78300
O529        O  0.94337041  0.03940830  0.54171046    -0.78300
C530        C  0.93905335  0.03619234  0.58009004     1.11400
C531        C  0.86846332  0.47270342  0.94455488     1.11300
C532        C  0.95175665  0.03643716  0.91496682     1.11400
C533        C  0.86788499  0.46330159  0.54888235     1.11300
O534        O  0.92565655  0.44118907  0.58471446    -0.78300
O535        O  0.98242845  0.46298349  0.92775521    -0.78400
O536        O  0.51063046  0.01958399  0.53627589    -0.78300
O537        O  0.92142421  0.40274000  0.95681703    -0.78300
O538        O  0.91884302  0.43982724  0.90990167    -0.78300
O539        O  0.98577540  0.47440557  0.56687291    -0.78300
O540        O  0.93567436  0.40612871  0.53840867    -0.78300
O541        O  0.51349881  0.00376460  0.95813550    -0.78300
Co542      Co  0.93957824  0.48297059  0.55129325     1.51200
Co543      Co  0.94029138  0.48022481  0.94260786     1.51700
Co544      Co  0.97595467  0.01400836  0.99892013     1.51600
Co545      Co  0.89792685  0.42602494  0.99711318     1.51500
O546        O  0.94269009  0.46458255  0.99700387    -1.40200
C547        C  0.93342648  0.41342409  0.57477300     1.11300
C548        C  0.51074967  0.48172319  0.93423121     1.11400
C549        C  0.51227749  0.49643980  0.56260420     1.11400
C550        C  0.92052463  0.41023352  0.92031372     1.11300
C551        C  0.92700158  0.31397641  0.81794884    -0.16700
C552        C  0.92390590  0.33444510  0.84305390     0.07400
C553        C  0.92187120  0.36136710  0.86895725     0.09300
C554        C  0.92100104  0.38456437  0.89105460    -0.17500
C555        C  0.93909432  0.38930745  0.60422323    -0.16700
C556        C  0.94348442  0.36666697  0.62572289     0.07400
C557        C  0.94705817  0.33952916  0.65074603     0.09300
C558        C  0.94770254  0.31809552  0.67550336    -0.17500
C559        C  0.94831142  0.13749146  0.81827253    -0.16700
C560        C  0.95042052  0.11727464  0.84420550     0.07400
C561        C  0.95120403  0.09034049  0.87083087     0.09300
C562        C  0.95128434  0.06604803  0.89156614    -0.17500
C563        C  0.92560495  0.13433381  0.67534746    -0.16700
C564        C  0.92456619  0.11376536  0.64921659     0.07400
C565        C  0.92663646  0.08705928  0.62295937     0.09300
C566        C  0.93095610  0.06360658  0.60287556    -0.17500
C567        C  0.79100333  0.48712327  0.81983226    -0.16700
C568        C  0.80620721  0.48657388  0.85146473     0.07400
C569        C  0.82477991  0.48399672  0.88769440     0.09300
C570        C  0.84279841  0.48002100  0.91626454    -0.17500
C571        C  0.84020691  0.46656629  0.57674535    -0.16700
C572        C  0.82121276  0.46925760  0.60491053     0.07400
C573        C  0.80217108  0.47224991  0.64074196     0.09300
C574        C  0.78726872  0.47475313  0.67220674    -0.17500
C575        C  0.60195473  0.47324329  0.82183918    -0.16700
C576        C  0.58456698  0.47280767  0.85197179     0.07400
C577        C  0.56199015  0.47429823  0.88504973     0.09300
C578        C  0.54024045  0.47700508  0.91015711    -0.17500
C579        C  0.54257739  0.49659056  0.58760654    -0.16700
C580        C  0.56442572  0.49566945  0.61320428     0.07400
C581        C  0.58671748  0.49353362  0.64637008     0.09300
C582        C  0.60371043  0.49087136  0.67615297    -0.17500
C583        C  0.62329054  0.48455984  0.21177458     0.05000
C584        C  0.65902783  0.98167085  0.21260790    -0.11200
C585        C  0.67927136  0.98765627  0.24819519     0.02500
C586        C  0.66180177  0.99390038  0.28376557    -0.09700
C587        C  0.62579942  0.49514479  0.28328775     0.05000
C588        C  0.60667741  0.49022459  0.24757670    -0.09100
H589        H  0.67074647  0.97587445  0.18477936     0.10600
H590        H  0.67604647  0.99944671  0.31152462     0.08100
H591        H  0.57876557  0.49054081  0.24770509     0.07900
C592        C  0.77355973  0.98976300  0.21206147     0.05000
C593        C  0.79049326  0.98404144  0.24780749    -0.11200
C594        C  0.77171716  0.97984718  0.28396568     0.02500
C595        C  0.73561456  0.98054213  0.28393028    -0.09700
C596        C  0.71808406  0.98699236  0.24836440     0.05000
C597        C  0.73800419  0.99222895  0.21271533    -0.09100
H598        H  0.81810191  0.98251548  0.24741691     0.10600
H599        H  0.72145125  0.97547334  0.31180681     0.08100
H600        H  0.72615833  0.99805735  0.18496484     0.07900
C601        C  0.93914130  0.65656632  0.21028006     0.05000
C602        C  0.93313476  0.63860161  0.24587254    -0.11200
C603        C  0.92814261  0.65457978  0.28166573     0.02500
C604        C  0.92846536  0.68905463  0.28191961    -0.09700
C605        C  0.93486910  0.70808506  0.24623419     0.05000
C606        C  0.94053619  0.69120774  0.21040096    -0.09100
H607        H  0.93262814  0.61191987  0.24577351     0.10600
H608        H  0.92349314  0.70067530  0.30988452     0.08100
H609        H  0.94641744  0.70475384  0.18263036     0.07900
C610        C  0.92760619  0.79606384  0.21145413     0.05000
C611        C  0.92659969  0.76150053  0.21143140    -0.11200
C612        C  0.93562070  0.74515398  0.24629645     0.02500
C613        C  0.94496429  0.76467263  0.28121197    -0.09700
C614        C  0.94493530  0.79910154  0.28103097     0.05000
C615        C  0.93671919  0.81450602  0.24612630    -0.09100
H616        H  0.91828367  0.74759735  0.18442619     0.10600
H617        H  0.95232276  0.75346669  0.30847581     0.08100
H618        H  0.93686176  0.84113757  0.24611963     0.07900
O619        O  0.94491598  0.50948273  0.09636439    -0.78300
O620        O  0.89419934  0.98774965  0.45215320    -0.78300
O621        O  0.94243900  0.54036190  0.45277904    -0.78300
O622        O  0.86273669  0.94379240  0.03569069    -0.78300
O623        O  0.93987171  0.50977752  0.39704480    -0.78400
O624        O  0.89131899  0.99484281  0.03869922    -0.78300
O625        O  0.87718180  0.93390413  0.45366500    -0.78300
O626        O  0.95396258  0.53942304  0.04008477    -0.78300
C627        C  0.94966611  0.53748695  0.07860977     1.11400
C628        C  0.87179992  0.96231968  0.44326767     1.11300
C629        C  0.93860433  0.53723824  0.41428442     1.11400
C630        C  0.86422070  0.97369858  0.04653418     1.11300
O631        O  0.91203087  0.93946985  0.08363378    -0.78300
O632        O  0.99050011  0.97523315  0.42922199    -0.78400
O633        O  0.51233681  0.50628058  0.03797611    -0.78300
O634        O  0.94054790  0.90629710  0.45552996    -0.78300
O635        O  0.93103789  0.94153428  0.40915354    -0.78300
O636        O  0.97680953  0.96166865  0.06880791    -0.78300
O637        O  0.91467891  0.90194542  0.03726233    -0.78300
O638        O  0.51211158  0.51971165  0.45812377    -0.78300
Co639      Co  0.93561242  0.97954142  0.05152294     1.51200
Co640      Co  0.94361977  0.98305580  0.44310110     1.51700
Co641      Co  0.97190766  0.52248023  0.49718899     1.51600
Co642      Co  0.91098655  0.92304390  0.49571546     1.51500
O643        O  0.94840420  0.96784927  0.49716641    -1.40200
C644        C  0.91297441  0.90961749  0.07361650     1.11300
C645        C  0.51330336  0.99685701  0.43257095     1.11400
C646        C  0.50845704  0.98122077  0.06408264     1.11400
C647        C  0.93896260  0.91386036  0.41913945     1.11300
C648        C  0.95099572  0.81947977  0.31651730    -0.16700
C649        C  0.95206998  0.84092976  0.34161164     0.07400
C650        C  0.94955544  0.86782160  0.36746683     0.09300
C651        C  0.94530223  0.89010641  0.38958240    -0.17500
C652        C  0.91197528  0.88388445  0.10318025    -0.16700
C653        C  0.91241059  0.86071942  0.12550610     0.07400
C654        C  0.91500289  0.83400649  0.15157130     0.09300
C655        C  0.91944519  0.81384197  0.17652327    -0.17500
C656        C  0.92423315  0.63482675  0.31782287    -0.16700
C657        C  0.92376370  0.61431478  0.34399914     0.07400
C658        C  0.92624638  0.58786532  0.37063420     0.09300
C659        C  0.93069443  0.56465786  0.39117804    -0.17500
C660        C  0.94357413  0.63836640  0.17414640    -0.16700
C661        C  0.94570972  0.61835745  0.14802726     0.07400
C662        C  0.94697177  0.59152458  0.12149228     0.09300
C663        C  0.94782802  0.56718785  0.10116768    -0.17500
C664        C  0.78942747  0.97468475  0.32120262    -0.16700
C665        C  0.80484245  0.97117400  0.35210123     0.07400
C666        C  0.82460487  0.96772922  0.38735565     0.09300
C667        C  0.84401141  0.96515403  0.41523506    -0.17500
C668        C  0.83926204  0.98174386  0.07522100    -0.16700
C669        C  0.82253321  0.98659808  0.10452997     0.07400
C670        C  0.80576746  0.99014346  0.14170567     0.09300
C671        C  0.79183764  0.99120362  0.17403171    -0.17500
C672        C  0.60746562  0.99678455  0.32116369    -0.16700
C673        C  0.59019087  0.99816581  0.35100340     0.07400
C674        C  0.56704087  0.99842442  0.38373443     0.09300
C675        C  0.54432087  0.99792342  0.40859570    -0.17500
C676        C  0.53732836  0.97685608  0.08955599    -0.16700
C677        C  0.55964887  0.97557163  0.11456972     0.07400
C678        C  0.58381564  0.97619202  0.14667887     0.09300
C679        C  0.60270878  0.97823569  0.17582125    -0.17500
C680        C  0.62218530  0.48650923  0.71281521     0.05000
C681        C  0.65918573  0.98885321  0.71009333    -0.11200
C682        C  0.67710793  0.98230041  0.74520017     0.02500
C683        C  0.65734387  0.97611047  0.78111754    -0.09700
C684        C  0.62102753  0.47624289  0.78435980     0.05000
C685        C  0.60364037  0.48133563  0.74888192    -0.09100
H686        H  0.67312666  0.99469238  0.68218529     0.10600
H687        H  0.66951444  0.97026580  0.80863976     0.08100
H688        H  0.57570411  0.48151673  0.74938837     0.07900
C689        C  0.76954471  0.97633769  0.70739191     0.05000
C690        C  0.78891576  0.98116414  0.74310467    -0.11200
C691        C  0.77237824  0.98646898  0.77924687     0.02500
C692        C  0.73650168  0.98775933  0.77949993    -0.09700
C693        C  0.71603384  0.98208324  0.74426778     0.05000
C694        C  0.73323246  0.97608066  0.70826748    -0.09100
H695        H  0.81674809  0.98054927  0.74282624     0.10600
H696        H  0.72490332  0.99326343  0.80753201     0.08100
H697        H  0.71865564  0.97071396  0.68069028     0.07900
C698        C  0.92933854  0.65480313  0.71079543     0.05000
C699        C  0.93424639  0.63832898  0.74623253    -0.11200
C700        C  0.94043556  0.65587850  0.78207706     0.02500
C701        C  0.94243507  0.69061463  0.78245483    -0.09700
C702        C  0.93693552  0.70794880  0.74687878     0.05000
C703        C  0.93003786  0.68925414  0.71104950    -0.09100
H704        H  0.93332494  0.61158193  0.74588986     0.10600
H705        H  0.94855418  0.70378497  0.81041167     0.08100
H706        H  0.92482551  0.70102485  0.68329329     0.07900
C707        C  0.94543900  0.79863846  0.71178127     0.05000
C708        C  0.94590394  0.76435143  0.71171196    -0.11200
C709        C  0.93805188  0.74505861  0.74706660     0.02500
C710        C  0.93059646  0.76166250  0.78240419    -0.09700
C711        C  0.93146604  0.79618783  0.78224272     0.05000
C712        C  0.93862955  0.81431268  0.74701931    -0.09100
H713        H  0.95238364  0.75313796  0.68408729     0.10600
H714        H  0.92354294  0.74805631  0.80989859     0.08100
H715        H  0.93850361  0.84089693  0.74693166     0.07900
O716        O  0.93920008  0.51069615  0.59674947    -0.78300
O717        O  0.89467045  0.99552186  0.95115514    -0.78300
O718        O  0.95398959  0.53870071  0.95228710    -0.78300
O719        O  0.87565323  0.93288597  0.53667375    -0.78300
O720        O  0.94582221  0.50801549  0.89656508    -0.78400
O721        O  0.89238654  0.98668412  0.53991828    -0.78300
O722        O  0.86572416  0.94441595  0.95298950    -0.78300
O723        O  0.94164291  0.54046589  0.54037881    -0.78300
C724        C  0.93782206  0.53786011  0.57886663     1.11400
C725        C  0.86777904  0.97441347  0.94222123     1.11300
C726        C  0.95004714  0.53623929  0.91376403     1.11400
C727        C  0.86988427  0.96103885  0.54765684     1.11300
O728        O  0.92766404  0.93947502  0.58342081    -0.78300
O729        O  0.98193279  0.96198244  0.93049279    -0.78400
O730        O  0.51098484  0.51933120  0.53790593    -0.78300
O731        O  0.91759409  0.90249704  0.95605831    -0.78300
O732        O  0.91827960  0.94043222  0.90935426    -0.78300
O733        O  0.98753176  0.97353976  0.56739902    -0.78300
O734        O  0.93912679  0.90542372  0.53660144    -0.78300
O735        O  0.51305183  0.50559230  0.95836184    -0.78300
Co736      Co  0.94136994  0.98184402  0.55129464     1.51200
Co737      Co  0.93973112  0.98002901  0.94324164     1.51700
Co738      Co  0.97851725  0.51526243  0.99650442     1.51600
Co739      Co  0.89372632  0.92607907  0.99560201     1.51500
O740        O  0.93946703  0.96361097  0.99754721    -1.40200
C741        C  0.93626604  0.91218572  0.57305712     1.11300
C742        C  0.51080190  0.97993771  0.93383133     1.11400
C743        C  0.51343307  0.99617323  0.55964594     1.11400
C744        C  0.91841118  0.91050069  0.91963693     1.11300
C745        C  0.92512975  0.81425126  0.81759678    -0.16700
C746        C  0.92183756  0.83472346  0.84258185     0.07400
C747        C  0.91983248  0.86172357  0.86830330     0.09300
C748        C  0.91901160  0.88496712  0.89030097    -0.17500
C749        C  0.94222285  0.88810702  0.60226571    -0.16700
C750        C  0.94664442  0.86589674  0.62432495     0.07400
C751        C  0.94984471  0.83942931  0.65041727     0.09300
C752        C  0.94978553  0.81850652  0.67589843    -0.17500
C753        C  0.94423210  0.63714136  0.81795763    -0.16700
C754        C  0.94586412  0.61680266  0.84384077     0.07400
C755        C  0.94688695  0.58981608  0.87021418     0.09300
C756        C  0.94787368  0.56556328  0.89063600    -0.17500
C757        C  0.92477053  0.63559530  0.67438125    -0.16700
C758        C  0.92363781  0.61540606  0.64784720     0.07400
C759        C  0.92551026  0.58894134  0.62123731     0.09300
C760        C  0.92976776  0.56549209  0.60116986    -0.17500
C761        C  0.79168685  0.98913102  0.81666217    -0.16700
C762        C  0.80697085  0.98926757  0.84831893     0.07400
C763        C  0.82540262  0.98700669  0.88469024     0.09300
C764        C  0.84302575  0.98275779  0.91348138    -0.17500
C765        C  0.84173707  0.96321233  0.57550822    -0.16700
C766        C  0.82220009  0.96539692  0.60340827     0.07400
C767        C  0.80236141  0.96846750  0.63874761     0.09300
C768        C  0.78696469  0.97163690  0.66977977    -0.17500
C769        C  0.60181658  0.97350535  0.81937927    -0.16700
C770        C  0.58405578  0.97244392  0.84943725     0.07400
C771        C  0.56134666  0.97319991  0.88281231     0.09300
C772        C  0.53986367  0.97540770  0.90858995    -0.17500
C773        C  0.54410659  0.99711566  0.58428842    -0.16700
C774        C  0.56603129  0.99692185  0.60999811     0.07400
C775        C  0.58807636  0.99541892  0.64356772     0.09300
C776        C  0.60471710  0.99293374  0.67368407    -0.17500
loop_ 
_geom_bond_atom_site_label_1 
_geom_bond_atom_site_label_2 
_geom_bond_distance 
_geom_bond_site_symmetry_2 
_ccdc_geom_bond_type 
C1            C6   1.398       .  A
C1          C196   1.405       .  A
C1          C291   1.450       .  S
C2            C3   1.418       .  A
C2          C195   1.403       .  A
C2            H7   1.081       .  S
C3            C4   1.417       .  A
C3           C14   1.511       .  S
C4          C199   1.403       .  A
C4            H8   1.081       .  S
C5            C6   1.399       .  A
C5          C198   1.401       .  A
C5          C284   1.444   1_565  S
C6            H9   1.085       .  S
C10          C11   1.403       .  A
C10          C15   1.403       .  A
C10          C89   1.452       .  S
C11          C12   1.403       .  A
C11          H16   1.084       .  S
C12          C13   1.404       .  A
C12          C82   1.454       .  S
C13          C14   1.417       .  A
C13          H17   1.081       .  S
C14          C15   1.416       .  A
C15          H18   1.081       .  S
C19          C20   1.392       .  A
C19          C24   1.403       .  A
C19          C78   1.442       .  S
C20          C21   1.393       .  A
C20          H25   1.086       .  S
C21          C22   1.404       .  A
C21          C74   1.443       .  S
C22          C23   1.419       .  A
C22          H26   1.081       .  S
C23          C24   1.419       .  A
C23          C30   1.510       .  S
C24          H27   1.081       .  S
C28          C29   1.403       .  A
C28          C33   1.389       .  A
C28          C73   1.439       .  S
C29          C30   1.420       .  A
C29          H34   1.081       .  S
C30          C31   1.421       .  A
C31          C32   1.405       .  A
C31          H35   1.081       .  S
C32          C33   1.390       .  A
C32          C66   1.440       .  S
C33          H36   1.086       .  S
O37          C45   1.269       .  A
O37        Co251   1.892   1_545  S
O38          C46   1.254       .  A
O38         Co58   1.983       .  S
O39          C47   1.299       .  A
O39         Co59   2.087       .  S
O40          C48   1.265       .  A
O40        Co157   2.023   1_554  S
O41          C47   1.270       .  A
O41        Co252   1.896   1_545  S
O42          C48   1.254       .  A
O42         Co57   1.984       .  S
O43          C46   1.266       .  A
O43         Co60   2.028       .  S
O44          C45   1.298       .  A
O44        Co156   2.089   1_554  S
C45          C81   1.438       .  S
C46          C85   1.447       .  S
C47          C77   1.439       .  S
C48          C86   1.445       .  S
O49          C62   1.271       .  A
O49         Co57   2.020       .  S
O50         C451   1.242       .  A
O50         Co58   1.962       .  S
O51         C258   1.255   1_545  A
O51        Co544   2.010   1_454  S
O52          C65   1.258       .  A
O52         Co60   1.967       .  S
O53          C65   1.271       .  A
O53         Co58   2.021       .  S
O54         C452   1.243       .  A
O54         Co57   1.965       .  S
O55          C62   1.259       .  A
O55        Co157   1.967   1_554  S
O56         C257   1.253   1_545  A
O56        Co447   2.008   1_455  S
Co57        O231   1.897       .  S
Co57        O158   1.931   1_554  S
Co58        O235   1.896       .  S
Co58         O61   1.932       .  S
Co59        O141   2.084       .  S
Co59        O536   2.015       .  S
Co59        O444   2.010       .  S
Co59        O255   2.265   1_545  S
Co60        O137   2.025       .  S
Co60        O152   1.968       .  S
Co60         O61   2.107       .  S
O61        Co154   1.933       .  S
O61        Co253   2.260       .  S
C62          C70   1.435       .  S
C63          C93   1.441       .  S
C63         O438   1.243   1_455  A
C63         O250   1.254       .  A
C64          C94   1.442       .  S
C64         O245   1.254       .  A
C64         O442   1.243   1_455  A
C65          C69   1.436       .  S
C66          C67   1.206       .  T
C67          C68   1.413       .  S
C68          C69   1.206       .  T
C70          C71   1.206       .  T
C71          C72   1.412       .  S
C72          C73   1.206       .  T
C74          C75   1.208       .  T
C75          C76   1.415       .  S
C76          C77   1.208       .  T
C78          C79   1.207       .  T
C79          C80   1.414       .  S
C80          C81   1.207       .  T
C82          C83   1.214       .  T
C83          C84   1.425       .  S
C84          C85   1.213       .  T
C86          C87   1.212       .  T
C87          C88   1.423       .  S
C88          C89   1.213       .  T
C90         C199   1.447       .  S
C90          C91   1.210       .  T
C91          C92   1.418       .  S
C92          C93   1.209       .  T
C94          C95   1.210       .  T
C95          C96   1.420       .  S
C96          C97   1.211       .  T
C97         C195   1.449       .  S
C98         C293   1.402       .  A
C98         C103   1.400       .  A
C98         C388   1.447       .  S
C99         C292   1.403       .  A
C99         C100   1.417       .  A
C99         H104   1.081       .  S
C100        C101   1.418       .  A
C100        C111   1.511       .  S
C101        C296   1.403       .  A
C101        H105   1.080       .  S
C102        C295   1.405       .  A
C102        C103   1.400       .  A
C102        C381   1.452       .  S
C103        H106   1.085       .  S
C107        C108   1.403       .  A
C107        C112   1.404       .  A
C107        C186   1.452       .  S
C108        C109   1.403       .  A
C108        H113   1.084       .  S
C109        C110   1.403       .  A
C109        C179   1.451       .  S
C110        C111   1.415       .  A
C110        H114   1.081       .  S
C111        C112   1.416       .  A
C112        H115   1.081       .  S
C116        C117   1.392       .  A
C116        C121   1.405       .  A
C116        C175   1.444       .  S
C117        C118   1.391       .  A
C117        H122   1.086       .  S
C118        C119   1.405       .  A
C118        C171   1.444       .  S
C119        C120   1.422       .  A
C119        H123   1.080       .  S
C120        C121   1.421       .  A
C120        C127   1.515       .  S
C121        H124   1.080       .  S
C125        C126   1.406       .  A
C125        C130   1.389       .  A
C125        C170   1.442       .  S
C126        C127   1.423       .  A
C126        H131   1.080       .  S
C127        C128   1.421       .  A
C128        C129   1.404       .  A
C128        H132   1.080       .  S
C129        C130   1.388       .  A
C129        C163   1.440       .  S
C130        H133   1.086       .  S
O134        C142   1.270       .  A
O134       Co348   1.898   1_545  S
O135        C143   1.254       .  A
O135       Co155   1.984       .  S
O136        C144   1.296       .  A
O136       Co156   2.082       .  S
O137        C145   1.265       .  A
O138        C144   1.270       .  A
O138       Co349   1.901   1_545  S
O139        C145   1.255       .  A
O139       Co154   1.982       .  S
O140        C143   1.265       .  A
O140       Co157   2.022       .  S
O141        C142   1.298       .  A
C142        C178   1.439       .  S
C143        C182   1.444       .  S
C144        C174   1.439       .  S
C145        C183   1.445       .  S
O146        C159   1.271       .  A
O146       Co154   2.023       .  S
O147        C548   1.242       .  A
O147       Co155   1.960       .  S
O148        C355   1.255   1_545  A
O148       Co447   2.015   1_455  S
O149        C162   1.259       .  A
O149       Co157   1.968       .  S
O150        C162   1.271       .  A
O150       Co155   2.019       .  S
O151        C549   1.242       .  A
O151       Co154   1.958       .  S
O152        C159   1.258       .  A
O153        C354   1.255   1_545  A
O153       Co544   2.013   1_455  S
Co154       O328   1.896       .  S
Co155       O332   1.899       .  S
Co155       O158   1.932       .  S
Co156       O439   2.007   1_556  S
Co156       O541   2.019       .  S
Co156       O352   2.259   1_545  S
Co157       O158   2.109       .  S
O158       Co350   2.261       .  S
C159        C167   1.437       .  S
C160        C190   1.443       .  S
C160        O535   1.242   1_455  A
C160        O347   1.255       .  A
C161        C191   1.442       .  S
C161        O342   1.255       .  A
C161        O539   1.242   1_455  A
C162        C166   1.435       .  S
C163        C164   1.206       .  T
C164        C165   1.413       .  S
C165        C166   1.206       .  T
C167        C168   1.207       .  T
C168        C169   1.415       .  S
C169        C170   1.207       .  T
C171        C172   1.208       .  T
C172        C173   1.416       .  S
C173        C174   1.208       .  T
C175        C176   1.208       .  T
C176        C177   1.416       .  S
C177        C178   1.208       .  T
C179        C180   1.212       .  T
C180        C181   1.422       .  S
C181        C182   1.212       .  T
C183        C184   1.213       .  T
C184        C185   1.424       .  S
C185        C186   1.213       .  T
C187        C296   1.449       .  S
C187        C188   1.211       .  T
C188        C189   1.420       .  S
C189        C190   1.211       .  T
C191        C192   1.210       .  T
C192        C193   1.419       .  S
C193        C194   1.210       .  T
C194        C292   1.448       .  S
C195        C200   1.398       .  A
C196        C197   1.419       .  A
C196        H201   1.081       .  S
C197        C198   1.414       .  A
C197        C208   1.509       .  S
C198        H202   1.081   1_565  S
C199        C200   1.399       .  A
C200        H203   1.085       .  S
C204        C205   1.404       .  A
C204        C209   1.402       .  A
C204        C283   1.450       .  S
C205        C206   1.404       .  A
C205        H210   1.084       .  S
C206        C207   1.406       .  A
C206        C276   1.457       .  S
C207        C208   1.418       .  A
C207        H211   1.081       .  S
C208        C209   1.413       .  A
C209        H212   1.081       .  S
C213        C214   1.392       .  A
C213        C218   1.405       .  A
C213        C272   1.443       .  S
C214        C215   1.392       .  A
C214        H219   1.086       .  S
C215        C216   1.404       .  A
C215        C268   1.442       .  S
C216        C217   1.419       .  A
C216        H220   1.081       .  S
C217        C218   1.420       .  A
C217        C224   1.510       .  S
C218        H221   1.081       .  S
C222        C223   1.405       .  A
C222        C227   1.389       .  A
C222        C267   1.441       .  S
C223        C224   1.421       .  A
C223        H228   1.081       .  S
C224        C225   1.420       .  A
C225        C226   1.403       .  A
C225        H229   1.081       .  S
C226        C227   1.389       .  A
C226        C260   1.439       .  S
C227        H230   1.086       .  S
O231        C239   1.270       .  A
O232        C240   1.254       .  A
O232       Co252   1.984       .  S
O233        C241   1.297       .  A
O233       Co253   2.084       .  S
O234        C242   1.263       .  A
O234       Co351   2.019   1_554  S
O235        C241   1.270       .  A
O236        C242   1.254       .  A
O236       Co251   1.985       .  S
O237        C240   1.266       .  A
O237       Co254   2.033       .  S
O238        C239   1.298       .  A
O238       Co350   2.086   1_554  S
C239        C275   1.439       .  S
C240        C279   1.451       .  S
C241        C271   1.438       .  S
C242        C280   1.443       .  S
O243        C256   1.271       .  A
O243       Co251   2.022       .  S
O244        C645   1.242       .  A
O244       Co252   1.960       .  S
O245       Co738   2.010   1_454  S
O246        C259   1.258       .  A
O246       Co254   1.966       .  S
O247        C259   1.271       .  A
O247       Co252   2.020       .  S
O248        C646   1.245       .  A
O248       Co251   1.967       .  S
O249        C256   1.260       .  A
O249       Co351   1.968   1_554  S
O250       Co641   2.008   1_455  S
Co251       O352   1.938   1_554  S
Co252       O255   1.928       .  S
Co253       O335   2.085       .  S
Co253       O730   2.013       .  S
Co253       O638   2.011       .  S
Co254       O331   2.027       .  S
Co254       O346   1.971       .  S
Co254       O255   2.109       .  S
O255       Co348   1.927       .  S
C256        C264   1.437       .  S
C257        C287   1.438       .  S
C257        O632   1.242   1_455  A
C258        C288   1.443       .  S
C258        O636   1.244   1_455  A
C259        C263   1.435       .  S
C260        C261   1.205       .  T
C261        C262   1.412       .  S
C262        C263   1.206       .  T
C264        C265   1.207       .  T
C265        C266   1.414       .  S
C266        C267   1.207       .  T
C268        C269   1.207       .  T
C269        C270   1.414       .  S
C270        C271   1.207       .  T
C272        C273   1.208       .  T
C273        C274   1.416       .  S
C274        C275   1.208       .  T
C276        C277   1.216       .  T
C277        C278   1.429       .  S
C278        C279   1.216       .  T
C280        C281   1.211       .  T
C281        C282   1.421       .  S
C282        C283   1.212       .  T
C284        C285   1.208       .  T
C285        C286   1.415       .  S
C286        C287   1.208   1_545  T
C288        C289   1.211       .  T
C289        C290   1.421       .  S
C290        C291   1.211       .  T
C292        C297   1.399       .  A
C293        C294   1.415       .  A
C293        H298   1.081       .  S
C294        C295   1.420       .  A
C294        C305   1.512       .  S
C295        H299   1.080       .  S
C296        C297   1.399       .  A
C297        H300   1.085       .  S
C301        C302   1.403       .  A
C301        C306   1.406       .  A
C301        C380   1.455       .  S
C302        C303   1.403       .  A
C302        H307   1.084       .  S
C303        C304   1.401       .  A
C303        C373   1.449       .  S
C304        C305   1.414       .  A
C304        H308   1.081       .  S
C305        C306   1.419       .  A
C306        H309   1.081       .  S
C310        C311   1.393       .  A
C310        C315   1.403       .  A
C310        C369   1.442       .  S
C311        C312   1.393       .  A
C311        H316   1.086       .  S
C312        C313   1.405       .  A
C312        C365   1.445       .  S
C313        C314   1.421       .  A
C313        H317   1.081       .  S
C314        C315   1.419       .  A
C314        C321   1.510       .  S
C315        H318   1.081       .  S
C319        C320   1.405       .  A
C319        C324   1.390       .  A
C319        C364   1.441       .  S
C320        C321   1.421       .  A
C320        H325   1.081       .  S
C321        C322   1.419       .  A
C322        C323   1.403       .  A
C322        H326   1.081       .  S
C323        C324   1.390       .  A
C323        C357   1.439       .  S
C324        H327   1.086       .  S
O328        C336   1.269       .  A
O329        C337   1.254       .  A
O329       Co349   1.983       .  S
O330        C338   1.298       .  A
O330       Co350   2.086       .  S
O331        C339   1.266       .  A
O332        C338   1.270       .  A
O333        C339   1.255       .  A
O333       Co348   1.985       .  S
O334        C337   1.264       .  A
O334       Co351   2.021       .  S
O335        C336   1.297       .  A
C336        C372   1.438       .  S
C337        C376   1.442       .  S
C338        C368   1.441       .  S
C339        C377   1.449       .  S
O340        C353   1.270       .  A
O340       Co348   2.018       .  S
O341        C742   1.242       .  A
O341       Co349   1.965       .  S
O342       Co641   2.015   1_455  S
O343        C356   1.259       .  A
O343       Co351   1.967       .  S
O344        C356   1.270       .  A
O344       Co349   2.019       .  S
O345        C743   1.242       .  A
O345       Co348   1.960       .  S
O346        C353   1.258       .  A
O347       Co738   2.014   1_455  S
Co349       O352   1.935       .  S
Co350       O633   2.010   1_556  S
Co350       O735   2.012       .  S
Co351       O352   2.113       .  S
C353        C361   1.437       .  S
C354        C384   1.445       .  S
C354        O729   1.243   1_455  A
C355        C385   1.442       .  S
C355        O733   1.241   1_455  A
C356        C360   1.434       .  S
C357        C358   1.205       .  T
C358        C359   1.411       .  S
C359        C360   1.205       .  T
C361        C362   1.207       .  T
C362        C363   1.414       .  S
C363        C364   1.207       .  T
C365        C366   1.209       .  T
C366        C367   1.417       .  S
C367        C368   1.209       .  T
C369        C370   1.207       .  T
C370        C371   1.415       .  S
C371        C372   1.208       .  T
C373        C374   1.211       .  T
C374        C375   1.420       .  S
C375        C376   1.210       .  T
C377        C378   1.214       .  T
C378        C379   1.427       .  S
C379        C380   1.215       .  T
C381        C382   1.212       .  T
C382        C383   1.422       .  S
C383        C384   1.212       .  T
C385        C386   1.210       .  T
C386        C387   1.419       .  S
C387        C388   1.210       .  T
C389        C584   1.405       .  A
C389        C394   1.398       .  A
C389        C679   1.450       .  S
C390        C583   1.403       .  A
C390        C391   1.418       .  A
C390        H395   1.080       .  S
C391        C392   1.417       .  A
C391        C402   1.511       .  S
C392        C587   1.403       .  A
C392        H396   1.081       .  S
C393        C586   1.402       .  A
C393        C394   1.398       .  A
C393        C672   1.445       .  S
C394        H397   1.085       .  S
C398        C399   1.403       .  A
C398        C403   1.403       .  A
C398        C477   1.452       .  S
C399        C400   1.403       .  A
C399        H404   1.084       .  S
C400        C401   1.404       .  A
C400        C470   1.453       .  S
C401        C402   1.417       .  A
C401        H405   1.081       .  S
C402        C403   1.416       .  A
C403        H406   1.080       .  S
C407        C408   1.392       .  A
C407        C412   1.405       .  A
C407        C466   1.444       .  S
C408        C409   1.392       .  A
C408        H413   1.086       .  S
C409        C410   1.403       .  A
C409        C462   1.442       .  S
C410        C411   1.419       .  A
C410        H414   1.080       .  S
C411        C412   1.421       .  A
C411        C418   1.512       .  S
C412        H415   1.081       .  S
C416        C417   1.405       .  A
C416        C421   1.389       .  A
C416        C461   1.441       .  S
C417        C418   1.421       .  A
C417        H422   1.081       .  S
C418        C419   1.421       .  A
C419        C420   1.404       .  A
C419        H423   1.080       .  S
C420        C421   1.389       .  A
C420        C454   1.439       .  S
C421        H424   1.086       .  S
O425        C433   1.270       .  A
O425       Co639   1.898   1_545  S
O426        C434   1.254       .  A
O426       Co446   1.983       .  S
O427        C435   1.298       .  A
O427       Co447   2.085       .  S
O428        C436   1.265       .  A
O428       Co545   2.022   1_554  S
O429        C435   1.269       .  A
O429       Co640   1.895   1_545  S
O430        C436   1.255       .  A
O430       Co445   1.983       .  S
O431        C434   1.265       .  A
O431       Co448   2.027       .  S
O432        C433   1.298       .  A
O432       Co544   2.085   1_554  S
C433        C469   1.440       .  S
C434        C473   1.446       .  S
C435        C465   1.437       .  S
C436        C474   1.444       .  S
O437        C450   1.271       .  A
O437       Co445   2.021       .  S
O438       Co446   1.963       .  S
O439        C646   1.254   1_545  A
O440        C453   1.257       .  A
O440       Co448   1.964       .  S
O441        C453   1.271       .  A
O441       Co446   2.022       .  S
O442       Co445   1.963       .  S
O443        C450   1.260       .  A
O443       Co545   1.970   1_554  S
O444        C645   1.254   1_545  A
Co445       O619   1.897       .  S
Co445       O546   1.935   1_554  S
Co446       O623   1.897       .  S
Co446       O449   1.933       .  S
Co447       O529   2.081       .  S
Co447       O643   2.261   1_545  S
Co448       O525   2.026       .  S
Co448       O540   1.968       .  S
Co448       O449   2.109       .  S
O449       Co542   1.931       .  S
O449       Co641   2.261       .  S
C450        C458   1.437       .  S
C451        C481   1.441       .  S
C451        O638   1.254       .  A
C452        C482   1.442       .  S
C452        O633   1.254       .  A
C453        C457   1.435       .  S
C454        C455   1.206       .  T
C455        C456   1.412       .  S
C456        C457   1.206       .  T
C458        C459   1.207       .  T
C459        C460   1.414       .  S
C460        C461   1.207       .  T
C462        C463   1.207       .  T
C463        C464   1.414       .  S
C464        C465   1.207       .  T
C466        C467   1.208       .  T
C467        C468   1.416       .  S
C468        C469   1.208       .  T
C470        C471   1.214       .  T
C471        C472   1.424       .  S
C472        C473   1.213       .  T
C474        C475   1.212       .  T
C475        C476   1.423       .  S
C476        C477   1.213       .  T
C478        C587   1.447       .  S
C478        C479   1.210       .  T
C479        C480   1.419       .  S
C480        C481   1.210       .  T
C482        C483   1.210       .  T
C483        C484   1.419       .  S
C484        C485   1.210       .  T
C485        C583   1.448       .  S
C486        C681   1.402       .  A
C486        C491   1.400       .  A
C486        C776   1.447       .  S
C487        C680   1.402       .  A
C487        C488   1.417       .  A
C487        H492   1.081       .  S
C488        C489   1.418       .  A
C488        C499   1.512       .  S
C489        C684   1.403       .  A
C489        H493   1.080       .  S
C490        C683   1.406       .  A
C490        C491   1.400       .  A
C490        C769   1.454       .  S
C491        H494   1.085       .  S
C495        C496   1.403       .  A
C495        C500   1.404       .  A
C495        C574   1.453       .  S
C496        C497   1.403       .  A
C496        H501   1.084       .  S
C497        C498   1.402       .  A
C497        C567   1.451       .  S
C498        C499   1.416       .  A
C498        H502   1.080       .  S
C499        C500   1.417       .  A
C500        H503   1.081       .  S
C504        C505   1.393       .  A
C504        C509   1.403       .  A
C504        C563   1.441       .  S
C505        C506   1.392       .  A
C505        H510   1.086       .  S
C506        C507   1.406       .  A
C506        C559   1.447       .  S
C507        C508   1.422       .  A
C507        H511   1.081       .  S
C508        C509   1.418       .  A
C508        C515   1.511       .  S
C509        H512   1.081       .  S
C513        C514   1.406       .  A
C513        C518   1.389       .  A
C513        C558   1.442       .  S
C514        C515   1.422       .  A
C514        H519   1.081       .  S
C515        C516   1.419       .  A
C516        C517   1.404       .  A
C516        H520   1.081       .  S
C517        C518   1.389       .  A
C517        C551   1.440       .  S
C518        H521   1.086       .  S
O522        C530   1.270       .  A
O522       Co736   1.897   1_545  S
O523        C531   1.255       .  A
O523       Co543   1.984       .  S
O524        C532   1.298       .  A
O524       Co544   2.087       .  S
O525        C533   1.265       .  A
O526        C532   1.270       .  A
O526       Co737   1.901   1_545  S
O527        C533   1.254       .  A
O527       Co542   1.984       .  S
O528        C531   1.265       .  A
O528       Co545   2.022       .  S
O529        C530   1.297       .  A
C530        C566   1.437       .  S
C531        C570   1.444       .  S
C532        C562   1.443       .  S
C533        C571   1.446       .  S
O534        C547   1.271       .  A
O534       Co542   2.024       .  S
O535       Co543   1.962       .  S
O536        C743   1.255   1_545  A
O537        C550   1.259       .  A
O537       Co545   1.969       .  S
O538        C550   1.271       .  A
O538       Co543   2.020       .  S
O539       Co542   1.960       .  S
O540        C547   1.258       .  A
O541        C742   1.256   1_545  A
Co542       O716   1.896       .  S
Co543       O720   1.899       .  S
Co543       O546   1.934       .  S
Co544       O740   2.264   1_545  S
Co545       O546   2.108       .  S
O546       Co738   2.261       .  S
C547        C555   1.438       .  S
C548        C578   1.441       .  S
C548        O735   1.255       .  A
C549        C579   1.440       .  S
C549        O730   1.255       .  A
C550        C554   1.436       .  S
C551        C552   1.206       .  T
C552        C553   1.413       .  S
C553        C554   1.206       .  T
C555        C556   1.208       .  T
C556        C557   1.416       .  S
C557        C558   1.208       .  T
C559        C560   1.210       .  T
C560        C561   1.419       .  S
C561        C562   1.210       .  T
C563        C564   1.207       .  T
C564        C565   1.414       .  S
C565        C566   1.207       .  T
C567        C568   1.212       .  T
C568        C569   1.422       .  S
C569        C570   1.212       .  T
C571        C572   1.213       .  T
C572        C573   1.424       .  S
C573        C574   1.213       .  T
C575        C684   1.448       .  S
C575        C576   1.210       .  T
C576        C577   1.418       .  S
C577        C578   1.209       .  T
C579        C580   1.209       .  T
C580        C581   1.418       .  S
C581        C582   1.210       .  T
C582        C680   1.447       .  S
C583        C588   1.399       .  A
C584        C585   1.420       .  A
C584        H589   1.081       .  S
C585        C586   1.415       .  A
C585        C596   1.510       .  S
C586        H590   1.081       .  S
C587        C588   1.399       .  A
C588        H591   1.085       .  S
C592        C593   1.404       .  A
C592        C597   1.401       .  A
C592        C671   1.451       .  S
C593        C594   1.404       .  A
C593        H598   1.084       .  S
C594        C595   1.406       .  A
C594        C664   1.456       .  S
C595        C596   1.418       .  A
C595        H599   1.081       .  S
C596        C597   1.413       .  A
C597        H600   1.081       .  S
C601        C602   1.393       .  A
C601        C606   1.405       .  A
C601        C660   1.445       .  S
C602        C603   1.393       .  A
C602        H607   1.086       .  S
C603        C604   1.405       .  A
C603        C656   1.444       .  S
C604        C605   1.419       .  A
C604        H608   1.082       .  S
C605        C606   1.419       .  A
C605        C612   1.508       .  S
C606        H609   1.082       .  S
C610        C611   1.404       .  A
C610        C615   1.390       .  A
C610        C655   1.441       .  S
C611        C612   1.419       .  A
C611        H616   1.082       .  S
C612        C613   1.420       .  A
C613        C614   1.406       .  A
C613        H617   1.082       .  S
C614        C615   1.390       .  A
C614        C648   1.442       .  S
C615        H618   1.086       .  S
O619        C627   1.270       .  A
O620        C628   1.255       .  A
O620       Co640   1.985       .  S
O621        C629   1.298       .  A
O621       Co641   2.088       .  S
O622        C630   1.264       .  A
O622       Co739   2.023   1_554  S
O623        C629   1.270       .  A
O624        C630   1.253       .  A
O624       Co639   1.983       .  S
O625        C628   1.266       .  A
O625       Co642   2.027       .  S
O626        C627   1.298       .  A
O626       Co738   2.088   1_554  S
C627        C663   1.441       .  S
C628        C667   1.449       .  S
C629        C659   1.440       .  S
C630        C668   1.444       .  S
O631        C644   1.271       .  A
O631       Co639   2.023       .  S
O632       Co640   1.960       .  S
O634        C647   1.259       .  A
O634       Co642   1.971       .  S
O635        C647   1.271       .  A
O635       Co640   2.020       .  S
O636       Co639   1.965       .  S
O637        C644   1.259       .  A
O637       Co739   1.968   1_554  S
Co639       O740   1.933   1_554  S
Co640       O643   1.930       .  S
Co641       O723   2.080       .  S
Co642       O719   2.030       .  S
Co642       O734   1.968       .  S
Co642       O643   2.107       .  S
O643       Co736   1.932       .  S
C644        C652   1.437       .  S
C645        C675   1.439       .  S
C646        C676   1.444       .  S
C647        C651   1.438       .  S
C648        C649   1.207       .  T
C649        C650   1.415       .  S
C650        C651   1.208       .  T
C652        C653   1.207       .  T
C653        C654   1.414       .  S
C654        C655   1.207       .  T
C656        C657   1.208       .  T
C657        C658   1.417       .  S
C658        C659   1.209       .  T
C660        C661   1.209       .  T
C661        C662   1.417       .  S
C662        C663   1.209       .  T
C664        C665   1.215       .  T
C665        C666   1.427       .  S
C666        C667   1.214       .  T
C668        C669   1.212       .  T
C669        C670   1.422       .  S
C670        C671   1.212       .  T
C672        C673   1.208       .  T
C673        C674   1.416       .  S
C674        C675   1.208       .  T
C676        C677   1.211       .  T
C677        C678   1.421       .  S
C678        C679   1.212       .  T
C680        C685   1.398       .  A
C681        C682   1.415       .  A
C681        H686   1.081       .  S
C682        C683   1.420       .  A
C682        C693   1.511       .  S
C683        H687   1.081       .  S
C684        C685   1.399       .  A
C685        H688   1.085       .  S
C689        C690   1.404       .  A
C689        C694   1.406       .  A
C689        C768   1.457       .  S
C690        C691   1.403       .  A
C690        H695   1.084       .  S
C691        C692   1.402       .  A
C691        C761   1.450       .  S
C692        C693   1.414       .  A
C692        H696   1.081       .  S
C693        C694   1.419       .  A
C694        H697   1.081       .  S
C698        C699   1.392       .  A
C698        C703   1.402       .  A
C698        C757   1.440       .  S
C699        C700   1.393       .  A
C699        H704   1.086       .  S
C700        C701   1.405       .  A
C700        C753   1.444       .  S
C701        C702   1.420       .  A
C701        H705   1.081       .  S
C702        C703   1.417       .  A
C702        C709   1.507       .  S
C703        H706   1.081       .  S
C707        C708   1.403       .  A
C707        C712   1.389       .  A
C707        C752   1.439       .  S
C708        C709   1.420       .  A
C708        H713   1.081       .  S
C709        C710   1.418       .  A
C710        C711   1.403       .  A
C710        H714   1.081       .  S
C711        C712   1.390       .  A
C711        C745   1.438       .  S
C712        H715   1.086       .  S
O716        C724   1.270       .  A
O717        C725   1.255       .  A
O717       Co737   1.986       .  S
O718        C726   1.298       .  A
O718       Co738   2.086       .  S
O719        C727   1.266       .  A
O720        C726   1.270       .  A
O721        C727   1.255       .  A
O721       Co736   1.983       .  S
O722        C725   1.264       .  A
O722       Co739   2.019       .  S
O723        C724   1.296       .  A
C724        C760   1.435       .  S
C725        C764   1.444       .  S
C726        C756   1.441       .  S
C727        C765   1.450       .  S
O728        C741   1.271       .  A
O728       Co736   2.019       .  S
O729       Co737   1.965       .  S
O731        C744   1.259       .  A
O731       Co739   1.967       .  S
O732        C744   1.270       .  A
O732       Co737   2.018       .  S
O733       Co736   1.959       .  S
O734        C741   1.258       .  A
Co737       O740   1.933       .  S
Co739       O740   2.112       .  S
C741        C749   1.435       .  S
C742        C772   1.447       .  S
C743        C773   1.441       .  S
C744        C748   1.434       .  S
C745        C746   1.205       .  T
C746        C747   1.412       .  S
C747        C748   1.205       .  T
C749        C750   1.206       .  T
C750        C751   1.412       .  S
C751        C752   1.206       .  T
C753        C754   1.209       .  T
C754        C755   1.417       .  S
C755        C756   1.209       .  T
C757        C758   1.206       .  T
C758        C759   1.412       .  S
C759        C760   1.206       .  T
C761        C762   1.212       .  T
C762        C763   1.422       .  S
C763        C764   1.211       .  T
C765        C766   1.215       .  T
C766        C767   1.428       .  S
C767        C768   1.216       .  T
C769        C770   1.214       .  T
C770        C771   1.425       .  S
C771        C772   1.213       .  T
C773        C774   1.210       .  T
C774        C775   1.418       .  S
C775        C776   1.210       .  T
