geometry optimzed in LAMMPS
_audit_creation_date              2020-11-30 
_audit_creation_method            'lammps2cif' 
_symmetry_space_group_name_H-M    'P1' 
_symmetry_Int_Tables_number       1 
_symmetry_cell_setting            triclinic 
loop_ 
_symmetry_equiv_pos_as_xyz 
  x,y,z 
_cell_length_a                    42.95593374 
_cell_length_b                    43.20037588294987 
_cell_length_c                    43.45959736574821 
_cell_angle_alpha                 89.65061400513575 
_cell_angle_beta                  90.67824568664595 
_cell_angle_gamma                 119.91140015135785 
loop_ 
_atom_site_label 
_atom_site_type_symbol 
_atom_site_fract_x 
_atom_site_fract_y 
_atom_site_fract_z 
_atom_site_charge 
C1          C  0.27751977  0.27675485  0.99943918     0.80000
N2          N  0.29699392  0.29156894  0.02558395    -0.78300
C3          C  0.32859430  0.32293110  0.02449118     0.82400
N4          N  0.34393109  0.33396581  0.49847406    -0.78200
C5          C  0.32563393  0.31940899  0.47197466     0.82500
N6          N  0.29390086  0.28815060  0.47294639    -0.80000
C7          C  0.75256518  0.73413954  0.50021258     0.80000
N8          N  0.73468451  0.71802363  0.02631433    -0.78300
C9          C  0.70516383  0.68478950  0.02560311     0.82400
N10         N  0.69398703  0.66813609  0.49968789    -0.78200
C11         C  0.70813551  0.68463837  0.47263855     0.82500
N12         N  0.73737034  0.71784103  0.47306769    -0.80000
O13         O  0.56238897  0.51745690  0.21894336    -0.74600
O14         O  0.49939461  0.45670887  0.28220037    -0.74700
O15         O  0.49892933  0.45552765  0.21995214    -0.74700
O16         O  0.56309783  0.51839431  0.28114931    -0.74800
O17         O  0.53444230  0.54945806  0.28049139    -0.74700
O18         O  0.46963585  0.48592166  0.21914728    -0.74700
O19         O  0.47064578  0.48760990  0.28148414    -0.74700
O20         O  0.53295052  0.54777349  0.21801540    -0.74700
Ni21       Ni  0.53197528  0.48594227  0.25061795     1.25400
Ni22       Ni  0.50090080  0.51881165  0.24978580     1.25400
C23         C  0.55762197  0.54232193  0.20769625     0.87500
C24         C  0.47463239  0.46216075  0.29240275     0.87500
C25         C  0.47371064  0.46026985  0.20930851     0.87500
C26         C  0.55961382  0.54437562  0.29085412     0.87700
C27         C  0.72809921  0.99193588  0.99983929     0.80000
N28         N  0.71188400  0.99299196  0.02625062    -0.78300
C29         C  0.67841013  0.98907588  0.02513576     0.82400
N30         N  0.66102529  0.98291704  0.99764649    -0.78200
C31         C  0.67940243  0.98780114  0.47098968     0.82500
N32         N  0.71299327  0.99236554  0.47246920    -0.80000
C33         C  0.27611578  0.01695249  0.99898010     0.80000
N34         N  0.29370247  0.02132519  0.02627692    -0.78300
C35         C  0.32429366  0.01945403  0.02771924     0.82400
N36         N  0.33670277  0.01262837  0.00171102    -0.78200
C37         C  0.32526077  0.01732232  0.47469050     0.82500
N38         N  0.29391592  0.01798436  0.47281531    -0.81200
O39         O  0.50988666  0.96648831  0.21620651    -0.74600
O40         O  0.45275366  0.97068813  0.28165878    -0.74700
O41         O  0.45002490  0.97262810  0.21965288    -0.74700
O42         O  0.51252766  0.96439860  0.27826551    -0.74800
O43         O  0.54663012  0.02353984  0.27925726    -0.74700
O44         O  0.48416503  0.03186678  0.22105756    -0.74700
O45         O  0.48747069  0.02992443  0.28300112    -0.74700
O46         O  0.54385184  0.02564335  0.21744572    -0.74700
Ni47       Ni  0.48004888  0.96640454  0.24888145     1.25400
Ni48       Ni  0.51670529  0.02981143  0.25018335     1.25400
C49         C  0.53676251  0.99538808  0.20630139     0.87500
C50         C  0.46074811  0.00110440  0.29307723     0.87500
C51         C  0.45649282  0.00366402  0.21101491     0.87500
C52         C  0.54013995  0.99269909  0.28836416     0.87700
C53         C  0.99977629  0.27617846  0.00287638     0.80000
N54         N  0.99385228  0.29097892  0.47608189    -0.78300
C55         C  0.99185156  0.32137902  0.47722949     0.82400
N56         N  0.99128036  0.33494798  0.50509901    -0.78200
C57         C  0.99882036  0.32195629  0.03162910     0.82500
N58         N  0.99872032  0.29049965  0.03042897    -0.80000
C59         C  0.00837326  0.74714760  0.50147851     0.80000
N60         N  0.01615391  0.73403051  0.02732790    -0.78300
C61         C  0.01649453  0.70284901  0.02590007     0.82400
N62         N  0.00691684  0.68369519  0.50053866    -0.78200
C63         C  0.00689344  0.69962153  0.47363844     0.82500
N64         N  0.00722499  0.73127319  0.47412377    -0.80000
O65         O  0.02626833  0.49263316  0.28579441    -0.74600
O66         O  0.03433282  0.55546819  0.22002109    -0.74700
O67         O  0.03067781  0.55715835  0.28211677    -0.74700
O68         O  0.03010819  0.49093998  0.22396618    -0.74800
O69         O  0.97054118  0.46366878  0.22097779    -0.74700
O70         O  0.97114633  0.53105333  0.27871040    -0.74700
O71         O  0.97472346  0.52838649  0.21654028    -0.74700
O72         O  0.96661805  0.46649419  0.28295194    -0.74700
Ni73       Ni  0.03243882  0.52501311  0.25307179     1.25400
Ni74       Ni  0.96861719  0.49646546  0.24962610     1.25400
C75         C  0.99509610  0.46936091  0.29534729     0.87500
C76         C  0.00581173  0.55221795  0.20727362     0.87500
C77         C  0.00114470  0.55508070  0.29025602     0.87500
C78         C  0.00035507  0.46607479  0.21300350     0.87700
C79         C  0.03843573  0.04632192  0.00044704     0.02100
C80         C  0.03962690  0.01408807  0.99974498     0.02100
C81         C  0.00729376  0.98070710  0.00016891     0.02100
C82         C  0.97380695  0.97955416  0.99991906     0.02100
C83         C  0.97243359  0.01153688  0.00068346     0.02100
C84         C  0.00473342  0.04496211  0.00148541     0.02100
C85         C  0.01460436  0.78485600  0.00296157    -0.20100
C86         C  0.03012370  0.80937943  0.52236024     0.36100
C87         C  0.02899169  0.84138462  0.52147430    -0.26100
C88         C  0.00794994  0.84676399  0.00478854     0.02600
C89         C  0.98863499  0.82004799  0.98260074     0.27400
C90         C  0.99257179  0.78966089  0.98163601    -0.25200
N91         N  0.05473820  0.80600732  0.54292781    -0.82600
H92         H  0.04636960  0.86322185  0.53663102     0.13200
C93         C  0.00753787  0.88093934  0.00425222     0.02500
N94         N  0.96505882  0.82394451  0.96116605    -0.81100
H95         H  0.97786145  0.76928338  0.96444604     0.18000
C96         C  0.01851703  0.90182662  0.97749581    -0.26000
C97         C  0.01851709  0.93419916  0.97571642     0.36000
C98         C  0.00815744  0.94660226  0.00133407    -0.20000
C99         C  0.99738356  0.92588042  0.52422885    -0.25300
C100        C  0.99647984  0.89297619  0.52583931     0.27400
H101        H  0.02702841  0.89284206  0.95773834     0.13200
N102        N  0.02849359  0.95404892  0.94761902    -0.82500
H103        H  0.98969995  0.93541914  0.54414055     0.18000
N104        N  0.98462893  0.87203342  0.55336017    -0.81100
H105        H  0.01116482  0.93775661  0.93022163     0.33700
H106        H  0.05443098  0.95959133  0.94216620     0.38200
H107        H  0.00133157  0.88735227  0.57147342     0.33600
H108        H  0.95793760  0.86616631  0.06107027     0.30300
H109        H  0.95286504  0.80202727  0.94630828     0.33600
H110        H  0.94445304  0.82387137  0.97380989     0.30300
H111        H  0.03961259  0.78791975  0.56015928     0.38200
H112        H  0.07129146  0.83022020  0.55413978     0.33700
C113        C  0.00164209  0.57995550  0.31410349    -0.20100
C114        C  0.03381159  0.61120330  0.32285387     0.36100
C115        C  0.03356574  0.63174158  0.34768577    -0.26100
C116        C  0.00202891  0.62208561  0.36390801     0.02600
C117        C  0.96967826  0.59177122  0.35465455     0.27400
C118        C  0.96975012  0.57118679  0.32971212    -0.25200
N119        N  0.06671267  0.62197256  0.30674119    -0.82600
H120        H  0.05826374  0.65530067  0.35474441     0.13200
C121        C  0.00391832  0.64289504  0.39162826     0.02500
N122        N  0.93714812  0.58140883  0.37121825    -0.81100
H123        H  0.94497754  0.54739761  0.32324165     0.18000
C124        C  0.98409605  0.66069199  0.39268527    -0.26000
C125        C  0.98499005  0.68003493  0.41900060     0.36000
C126        C  0.00654852  0.68190477  0.44448340    -0.20000
C127        C  0.02649041  0.66423728  0.44320462    -0.25300
C128        C  0.02528376  0.64464819  0.41716082     0.27400
H129        H  0.96760856  0.65912097  0.37303490     0.13200
N130        N  0.96330575  0.69676089  0.42027326    -0.82500
H131        H  0.04285911  0.66542086  0.46282728     0.18000
N132        N  0.04521095  0.62601259  0.41669164    -0.81100
H133        H  0.94904413  0.69283466  0.39963991     0.33700
H134        H  0.94417202  0.68387892  0.43741412     0.38200
H135        H  0.05971054  0.63015105  0.43721228     0.33600
H136        H  0.02666983  0.59866989  0.41552195     0.30300
H137        H  0.91568960  0.55853795  0.36147701     0.33600
H138        H  0.94070626  0.57448707  0.39355826     0.30300
H139        H  0.06335632  0.62886703  0.28433531     0.38200
H140        H  0.08791381  0.64495561  0.31660322     0.33700
C141        C  0.01340619  0.68225852  0.05404373    -0.20100
C142        C  0.99122988  0.64472884  0.05442100     0.36100
C143        C  0.99057459  0.62556590  0.08078390    -0.26100
C144        C  0.01133244  0.64313184  0.10677817     0.02600
C145        C  0.03265295  0.68064771  0.10687765     0.27400
C146        C  0.03338459  0.69996691  0.08044730    -0.25200
N147        N  0.96919625  0.62627321  0.02814132    -0.82600
H148        H  0.97398287  0.59672435  0.08106398     0.13200
C149        C  0.01051203  0.62149400  0.13354575     0.02500
N150        N  0.05353193  0.69880020  0.13372328    -0.81100
H151        H  0.05018098  0.72877910  0.08017486     0.18000
C152        C  0.04076526  0.61840781  0.14049731    -0.26000
C153        C  0.04002997  0.59579169  0.16423508     0.36000
C154        C  0.00839330  0.57636789  0.18172573    -0.20000
C155        C  0.97828073  0.57995341  0.17472043    -0.25300
C156        C  0.97905861  0.60232970  0.15085139     0.27400
H157        H  0.06468608  0.63296217  0.12673160     0.13200
N158        N  0.07096125  0.59195426  0.17002801    -0.82500
H159        H  0.95400776  0.56540781  0.18803944     0.18000
N160        N  0.94803974  0.60567767  0.14399765    -0.81100
H161        H  0.09202689  0.60858451  0.15550549     0.33700
H162        H  0.06391217  0.56574178  0.16436874     0.38200
H163        H  0.92696653  0.58966036  0.15874757     0.33600
H164        H  0.95491496  0.63211419  0.14844021     0.30300
H165        H  0.06785732  0.72638129  0.13001465     0.33600
H166        H  0.03561520  0.69433986  0.15154060     0.30300
H167        H  0.95035000  0.63468616  0.02528364     0.38200
H168        H  0.95463795  0.59875314  0.03214635     0.33700
C169        C  0.00310473  0.07858471  0.00225581    -0.20100
C170        C  0.01754975  0.10282357  0.52515874     0.36100
C171        C  0.01589814  0.13450324  0.52466410    -0.26100
C172        C  0.99997667  0.14222562  0.00167728     0.02600
C173        C  0.98561603  0.11824099  0.97673754     0.27400
C174        C  0.98770285  0.08686500  0.97716041    -0.25200
N175        N  0.03419461  0.09522568  0.55075413    -0.82600
H176        H  0.02763814  0.15333509  0.54348127     0.13200
C177        C  0.99917311  0.17614577  0.00188849     0.02500
N178        N  0.96878981  0.12574314  0.95122422    -0.81100
H179        H  0.97742609  0.06876605  0.95774197     0.18000
C180        C  0.01320941  0.20062204  0.47672796    -0.26000
C181        C  0.01253730  0.23278772  0.47668798     0.36000
C182        C  0.99983372  0.24189039  0.00190535    -0.20000
C183        C  0.98441880  0.21760870  0.02632074    -0.25300
C184        C  0.98358278  0.18469843  0.02641035     0.27400
H185        H  0.02616986  0.19508282  0.45800952     0.13200
N186        N  0.02917843  0.25768155  0.45204814    -0.82500
H187        H  0.97237686  0.22401614  0.04520823     0.18000
N188        N  0.96665290  0.15975542  0.05113844    -0.81100
H189        H  0.05617202  0.26447675  0.45125258     0.33700
H190        H  0.01683773  0.24485703  0.43142240     0.38200
H191        H  0.95660100  0.17013838  0.06741137     0.33600
H192        H  0.94454445  0.13701529  0.04187463     0.30300
H193        H  0.95975637  0.10544585  0.93476184     0.33600
H194        H  0.94599299  0.12564197  0.95953633     0.30300
H195        H  0.01486899  0.07195500  0.56148366     0.38200
H196        H  0.04342998  0.11559301  0.56716561     0.33700
C197        C  0.99913159  0.33935972  0.06129606    -0.20100
C198        C  0.99278324  0.32211310  0.09032974     0.36100
C199        C  0.99209959  0.34030313  0.11693852    -0.26100
C200        C  0.99830564  0.37532257  0.11516393     0.02600
C201        C  0.00512760  0.39269058  0.08658024     0.27400
C202        C  0.00552859  0.37468332  0.06009587    -0.25200
N203        N  0.98676065  0.28635307  0.09288931    -0.82600
H204        H  0.98711796  0.32734559  0.13920144     0.13200
C205        C  0.99826035  0.39442040  0.14321184     0.02500
N206        N  0.01168087  0.42871475  0.08463987    -0.81100
H207        H  0.01087734  0.38864082  0.03831958     0.18000
C208        C  0.03114954  0.42042630  0.15557958    -0.26000
C209        C  0.03271206  0.44307342  0.17933077     0.36000
C210        C  0.00038339  0.44017738  0.19043361    -0.20000
C211        C  0.96736304  0.41278781  0.17875188    -0.25300
C212        C  0.96602113  0.38993296  0.15522603     0.27400
H213        H  0.05578126  0.42354353  0.14609574     0.13200
N214        N  0.06708369  0.46934612  0.19155427    -0.82500
H215        H  0.94242300  0.40974949  0.18733902     0.18000
N216        N  0.93212798  0.36279205  0.14291845    -0.81100
H217        H  0.08793922  0.46897574  0.17971274     0.33700
H218        H  0.06871632  0.46193720  0.21421247     0.38200
H219        H  0.91088034  0.36273415  0.15445665     0.33600
H220        H  0.93039552  0.36938416  0.12001667     0.30300
H221        H  0.01678693  0.43794572  0.06193917     0.33600
H222        H  0.98812393  0.42836769  0.09103619     0.30300
H223        H  0.01111685  0.28741206  0.08831759     0.38200
H224        H  0.98027673  0.27705893  0.11548371     0.33700
C225        C  0.99222568  0.44536501  0.32084404    -0.20100
C226        C  0.96528310  0.43430797  0.34339332     0.36100
C227        C  0.96482171  0.41260743  0.36776279    -0.26100
C228        C  0.99078663  0.40202356  0.37022525     0.02600
C229        C  0.01748403  0.41282841  0.34759950     0.27400
C230        C  0.01785437  0.43431860  0.32311167    -0.25200
N231        N  0.93958952  0.44642534  0.34237969    -0.82600
H232        H  0.94429263  0.40414250  0.38517088     0.13200
C233        C  0.99063140  0.38104149  0.39741529     0.02500
N234        N  0.04451925  0.40254692  0.34992294    -0.81100
H235        H  0.03846359  0.44273784  0.30578187     0.18000
C236        C  0.98890661  0.34802618  0.39335244    -0.26000
C237        C  0.98899653  0.32761740  0.41870421     0.36000
C238        C  0.99094911  0.34070654  0.44892598    -0.20000
C239        C  0.99244418  0.37383469  0.45262325    -0.25300
C240        C  0.99252037  0.39411033  0.42735680     0.27400
H241        H  0.98713091  0.33799598  0.37022618     0.13200
N242        N  0.98704099  0.29384720  0.41362952    -0.82500
H243        H  0.99407815  0.38452966  0.47542471     0.18000
N244        N  0.99502082  0.42823628  0.43199339    -0.81100
H245        H  0.98752571  0.28918053  0.39010547     0.33700
H246        H  0.96208863  0.27391339  0.42153024     0.38200
H247        H  0.99585651  0.43386079  0.45545284     0.33600
H248        H  0.01942330  0.44777304  0.42283090     0.30300
H249        H  0.06201482  0.41248986  0.33129235     0.33600
H250        H  0.05990944  0.41455533  0.36967807     0.30300
H251        H  0.92180959  0.43325090  0.32415508     0.38200
H252        H  0.92402297  0.43867675  0.36226686     0.33700
C253        C  0.24225297  0.01825047  0.99799171    -0.20100
C254        C  0.23673908  0.04100923  0.01769309     0.36100
C255        C  0.20338266  0.03968876  0.01733685    -0.26100
C256        C  0.17555691  0.01635932  0.99764479     0.02600
C257        C  0.18429646  0.99801148  0.47430754     0.27400
C258        C  0.21827788  0.00058828  0.47554457    -0.25200
N259        N  0.26507041  0.06561512  0.03776261    -0.82600
H260        H  0.19900759  0.05702544  0.03241636     0.13200
C261        C  0.14072476  0.01562136  0.99845277     0.02500
N262        N  0.15702805  0.97343841  0.45344268    -0.81100
H263        H  0.22387507  0.98426754  0.46027451     0.18000
C264        C  0.13107627  0.03052803  0.46982889    -0.26000
C265        C  0.09786718  0.02955184  0.46938125     0.36000
C266        C  0.07489749  0.01522808  0.99892401    -0.20000
C267        C  0.08589178  0.00301816  0.02453832    -0.25300
C268        C  0.11857462  0.00297251  0.02452871     0.27400
H269        H  0.14937518  0.04251967  0.45080242     0.13200
N270        N  0.08793856  0.04380593  0.44352751    -0.82500
H271        H  0.06879492  0.99342810  0.04454329     0.18000
N272        N  0.12941837  0.99015869  0.05082224    -0.81100
H273        H  0.10810600  0.05375896  0.42696240     0.33700
H274        H  0.06505226  0.02302248  0.43316921     0.38200
H275        H  0.11027034  0.98212502  0.06819237     0.33600
H276        H  0.13014119  0.96736118  0.04401094     0.30300
H277        H  0.16636557  0.95895949  0.44121634     0.33600
H278        H  0.15205395  0.98835931  0.43715246     0.30300
H279        H  0.28586942  0.08411148  0.02391950     0.38200
H280        H  0.25648491  0.08011417  0.05088212     0.33700
C281        C  0.34251566  0.01242233  0.44701232    -0.20100
C282        C  0.36822515  0.00097790  0.44974919     0.36100
C283        C  0.38702241  0.00067913  0.42368468    -0.26100
C284        C  0.38006623  0.01030819  0.39474202     0.02600
C285        C  0.35348711  0.02018470  0.39151909     0.27400
C286        C  0.33496226  0.02118059  0.41769941    -0.25200
N287        N  0.37495438  0.98922669  0.47884147    -0.82600
H288        H  0.40697554  0.99239151  0.42581790     0.13200
C289        C  0.40062065  0.00918029  0.36803727     0.02500
N290        N  0.34586896  0.02967602  0.36175895    -0.81100
H291        H  0.31529146  0.02977625  0.41528652     0.18000
C292        C  0.38282274  0.98357242  0.34497364    -0.26000
C293        C  0.40177148  0.98041089  0.32013973     0.36000
C294        C  0.43932661  0.00333770  0.31851114    -0.20000
C295        C  0.45696393  0.02929185  0.34144109    -0.25300
C296        C  0.43802283  0.03235743  0.36625859     0.27400
H297        H  0.35408437  0.96579769  0.34656146     0.13200
N298        N  0.38296129  0.95439190  0.29643464    -0.82500
H299        H  0.48575927  0.04693649  0.34021447     0.18000
N300        N  0.45656647  0.05876464  0.38975623    -0.81100
H301        H  0.35553612  0.93957700  0.30122750     0.33700
H302        H  0.38530236  0.96826323  0.27599302     0.38200
H303        H  0.48406841  0.07346792  0.38519589     0.33600
H304        H  0.44700262  0.07676259  0.38885038     0.30300
H305        H  0.32550265  0.03614635  0.36323980     0.33600
H306        H  0.36892984  0.05279975  0.35457531     0.30300
H307        H  0.35145341  0.96591828  0.48498093     0.38200
H308        H  0.39495554  0.98230129  0.47689489     0.33700
C309        C  0.43198084  0.00678752  0.18867388    -0.20100
C310        C  0.43047944  0.03866772  0.18543088     0.36100
C311        C  0.40934109  0.04126565  0.16179034    -0.26100
C312        C  0.38968492  0.01268286  0.14173729     0.02600
C313        C  0.38962102  0.98034300  0.14583639     0.27400
C314        C  0.41061001  0.97760034  0.16941577    -0.25200
N315        N  0.45072639  0.06839919  0.20574778    -0.82600
H316        H  0.40919952  0.06604742  0.15822458     0.13200
C317        C  0.37379238  0.01842155  0.11371052     0.02500
N318        N  0.36946598  0.95105018  0.12507107    -0.81100
H319        H  0.41139276  0.95302653  0.17189230     0.18000
C320        C  0.39295048  0.02498033  0.08647186    -0.26000
C321        C  0.37830411  0.02754608  0.05834871     0.36000
C322        C  0.34305188  0.02257615  0.05743065    -0.20000
C323        C  0.32470973  0.01795332  0.08524775    -0.25300
C324        C  0.33981594  0.01573193  0.11348504     0.27400
H325        H  0.41939437  0.02757903  0.08719299     0.13200
N326        N  0.39912735  0.03484190  0.03082864    -0.82500
H327        H  0.29798931  0.01461871  0.08490840     0.18000
N328        N  0.32063087  0.01003942  0.14173887    -0.81100
H329        H  0.42393137  0.03671072  0.03556806     0.33700
H330        H  0.40464891  0.05990275  0.02274393     0.38200
H331        H  0.29603174  0.00884970  0.13759690     0.33600
H332        H  0.31470554  0.98504012  0.15031673     0.30300
H333        H  0.37274856  0.92931314  0.13086866     0.33600
H334        H  0.34226470  0.94267320  0.12791982     0.30300
H335        H  0.44027539  0.06041603  0.22783533     0.38200
H336        H  0.44709116  0.08987837  0.19978816     0.33700
C337        C  0.93678899  0.00968527  0.00049956    -0.20100
C338        C  0.92292022  0.01604291  0.02737090     0.36100
C339        C  0.88911009  0.01355385  0.02658958    -0.26100
C340        C  0.86855451  0.00513288  0.50049003     0.02600
C341        C  0.87991662  0.99504513  0.47389352     0.27400
C342        C  0.91404161  0.99800903  0.47364260    -0.25200
N343        N  0.94280268  0.02432958  0.05566647    -0.82600
H344        H  0.87884922  0.01884799  0.04736875     0.13200
C345        C  0.83337201  0.00397471  0.50126010     0.02500
N346        N  0.85654660  0.98136829  0.44745577    -0.81100
H347        H  0.92311235  0.99092489  0.45310435     0.18000
C348        C  0.82581303  0.02322815  0.47918997    -0.26000
C349        C  0.79148541  0.02081517  0.98056272     0.36000
C350        C  0.76457818  0.99663256  0.00058903    -0.20000
C351        C  0.77464019  0.98380515  0.52374384    -0.25300
C352        C  0.80755693  0.98412725  0.52384147     0.27400
H353        H  0.84591957  0.03899429  0.46224296     0.13200
N354        N  0.78460872  0.04358172  0.96076813    -0.82500
H355        H  0.75455726  0.96808420  0.54072000     0.18000
N356        N  0.81456367  0.96374496  0.54631586    -0.81100
H357        H  0.80716658  0.05982458  0.94750634     0.33700
H358        H  0.78032446  0.06065792  0.97479590     0.38200
H359        H  0.79287014  0.95064768  0.56125546     0.33600
H360        H  0.81676627  0.94387637  0.53459283     0.30300
H361        H  0.86889280  0.97507265  0.42990139     0.33600
H362        H  0.83399574  0.95738379  0.45395907     0.30300
H363        H  0.94657715  0.04882091  0.06350957     0.38200
H364        H  0.92715761  0.00481003  0.07179078     0.33700
C365        C  0.66030361  0.98168422  0.44119780    -0.20100
C366        C  0.62238201  0.96183093  0.43937317     0.36100
C367        C  0.60511970  0.96068229  0.41149336    -0.26100
C368        C  0.62492039  0.97835248  0.38535462     0.02600
C369        C  0.66274721  0.99609513  0.38654997     0.27400
C370        C  0.68011698  0.99761727  0.41452695    -0.25200
N371        N  0.60153278  0.94325347  0.46586970    -0.82600
H372        H  0.57603917  0.94703595  0.41042236     0.13200
C373        C  0.60563606  0.98134594  0.35813547     0.02500
N374        N  0.68324322  0.01324280  0.35952407    -0.81100
H375        H  0.70919111  0.01249359  0.41576987     0.18000
C376        C  0.61368962  0.01544318  0.34834565    -0.26000
C377        C  0.59397533  0.02004737  0.32466496     0.36000
C378        C  0.56444250  0.98959888  0.31117577    -0.20000
C379        C  0.55720567  0.95537382  0.32046335    -0.25300
C380        C  0.57773207  0.95096967  0.34360919     0.27400
H381        H  0.63514100  0.03869203  0.35972598     0.13200
N382        N  0.60365412  0.05555501  0.31482877    -0.82500
H383        H  0.53519386  0.93185962  0.30992458     0.18000
N384        N  0.57017630  0.91585570  0.35269193    -0.81100
H385        H  0.62474981  0.07472341  0.32829514     0.33700
H386        H  0.61356868  0.05875417  0.29248730     0.38200
H387        H  0.54870806  0.89632247  0.33980752     0.33600
H388        H  0.59266040  0.91363503  0.34738827     0.30300
H389        H  0.71076652  0.02537691  0.36431773     0.33600
H390        H  0.67743145  0.99335317  0.34320620     0.30300
H391        H  0.60767074  0.92333699  0.47155659     0.38200
H392        H  0.57406325  0.93024444  0.46063691     0.33700
C393        C  0.56026536  0.99434960  0.18175129    -0.20100
C394        C  0.55725469  0.96200660  0.17100621     0.36100
C395        C  0.57944045  0.96296492  0.14699412    -0.26100
C396        C  0.60495541  0.99536793  0.13382338     0.02600
C397        C  0.60900263  0.02764416  0.14517296     0.27400
C398        C  0.58660981  0.02681327  0.16884123    -0.25200
N399        N  0.53177078  0.92829280  0.18427354    -0.82600
H400        H  0.57649052  0.93823436  0.13813809     0.13200
C401        C  0.62552739  0.99498509  0.10675893     0.02500
N402        N  0.63573595  0.06113873  0.13241741    -0.81100
H403        H  0.58966936  0.05182426  0.17701749     0.18000
C404        C  0.62063164  0.00811014  0.07866936    -0.26000
C405        C  0.63807060  0.00691207  0.05207095     0.36000
C406        C  0.66099960  0.99222362  0.05331567    -0.20000
C407        C  0.66662134  0.97984616  0.08165883    -0.25300
C408        C  0.64895716  0.98095108  0.10841694     0.27400
H409        H  0.60274234  0.01901013  0.07728784     0.13200
N410        N  0.63278412  0.02121375  0.02392938    -0.82500
H411        H  0.68424698  0.96864753  0.08280361     0.18000
N412        N  0.65458600  0.96784073  0.13720387    -0.81100
H413        H  0.64062369  0.04803819  0.02761732     0.33700
H414        H  0.60534408  0.00750343  0.01858900     0.38200
H415        H  0.67242903  0.95822668  0.13450336     0.33600
H416        H  0.66694655  0.98948338  0.15233268     0.30300
H417        H  0.63519174  0.08245487  0.14316567     0.33600
H418        H  0.66089378  0.06394030  0.13735172     0.30300
H419        H  0.54013691  0.92796000  0.20690785     0.38200
H420        H  0.53216778  0.90722345  0.17292244     0.33700
C421        C  0.78162714  0.77219349  0.00018820    -0.20100
C422        C  0.81350126  0.78012213  0.52051569     0.36100
C423        C  0.84348148  0.81461879  0.51928534    -0.26100
C424        C  0.84314991  0.84131067  0.99919756     0.02600
C425        C  0.81486521  0.83217332  0.97776754     0.27400
C426        C  0.78466387  0.79757518  0.97823356    -0.25200
N427        N  0.81319451  0.75467913  0.54196001    -0.82600
H428        H  0.86592746  0.82155385  0.53482844     0.13200
C429        C  0.87605101  0.87732947  0.99929796     0.02500
N430        N  0.81672452  0.85812897  0.95587766    -0.81100
H431        H  0.76307204  0.79058743  0.96171394     0.18000
C432        C  0.89622909  0.88974879  0.47026840    -0.26000
C433        C  0.92685855  0.92372095  0.46898803     0.36000
C434        C  0.93982827  0.94448785  0.99877246    -0.20000
C435        C  0.92038117  0.93107405  0.02598073    -0.25300
C436        C  0.88846220  0.89790749  0.02650093     0.27400
H437        H  0.88721414  0.87363879  0.44956505     0.13200
N438        N  0.94408652  0.93624548  0.43974927    -0.82500
H439        H  0.93025163  0.94666785  0.04690863     0.18000
N440        N  0.86847563  0.88512754  0.05449974    -0.81100
H441        H  0.92549067  0.93739632  0.42474189     0.33700
H442        H  0.96572809  0.96225499  0.44117657     0.38200
H443        H  0.88138903  0.90329638  0.07242726     0.33600
H444        H  0.84372251  0.88378556  0.05094638     0.30300
H445        H  0.79384979  0.84713871  0.94172400     0.33600
H446        H  0.81670613  0.87883257  0.96820354     0.30300
H447        H  0.81618932  0.76520033  0.56410469     0.38200
H448        H  0.83543697  0.75169019  0.53761428     0.33700
C449        C  0.69097076  0.66602140  0.44338293    -0.20100
C450        C  0.69296168  0.68450503  0.41576104     0.36100
C451        C  0.67246013  0.66515176  0.39005357    -0.26100
C452        C  0.65095356  0.62796854  0.39118839     0.02600
C453        C  0.65018301  0.60929748  0.41800244     0.27400
C454        C  0.67008604  0.62848964  0.44384917    -0.25200
N455        N  0.71465447  0.72272608  0.41404214    -0.82600
H456        H  0.67302042  0.67906587  0.36904814     0.13200
C457        C  0.62848947  0.60876882  0.36436796     0.02500
N458        N  0.62895512  0.57096524  0.41888799    -0.81100
H459        H  0.66887996  0.61396866  0.46463336     0.18000
C460        C  0.64067045  0.59237980  0.34392000    -0.26000
C461        C  0.61927173  0.57245813  0.31889264     0.36000
C462        C  0.58459337  0.56821286  0.31486794    -0.20000
C463        C  0.57301961  0.58570615  0.33495771    -0.25300
C464        C  0.59468181  0.60592735  0.35977841     0.27400
H465        H  0.66694414  0.59515075  0.34759032     0.13200
N466        N  0.63274288  0.55679408  0.29749637    -0.82500
H467        H  0.54658423  0.58270397  0.33188053     0.18000
N468        N  0.58243244  0.62327080  0.38057137    -0.81100
H469        H  0.65852830  0.56227553  0.30395873     0.33700
H470        H  0.63523975  0.56915867  0.27618892     0.38200
H471        H  0.55710488  0.61885596  0.37379960     0.33600
H472        H  0.57928409  0.61133840  0.40217968     0.30300
H473        H  0.63166794  0.56126700  0.44025920     0.33600
H474        H  0.60196809  0.56398572  0.41666538     0.30300
H475        H  0.74151559  0.72903100  0.41463118     0.38200
H476        H  0.71088214  0.73204028  0.39283895     0.33700
C477        C  0.68704593  0.66471488  0.05426568    -0.20100
C478        C  0.69670976  0.67974622  0.08419671     0.36100
C479        C  0.67618904  0.66002522  0.10966118    -0.26100
C480        C  0.64660903  0.62559659  0.10603365     0.02600
C481        C  0.63759824  0.61008393  0.07659330     0.27400
C482        C  0.65775593  0.62966379  0.05116044    -0.25200
N483        N  0.72685058  0.71495620  0.08881401    -0.82600
H484        H  0.68308891  0.67162896  0.13248777     0.13200
C485        C  0.62481575  0.60586890  0.13308581     0.02500
N486        N  0.60778156  0.57447214  0.07265844    -0.81100
H487        H  0.65009302  0.61729450  0.02867438     0.18000
C488        C  0.58903483  0.59804876  0.13454822    -0.26000
C489        C  0.56664214  0.57742406  0.15867146     0.36000
C490        C  0.58053237  0.56469694  0.18210941    -0.20000
C491        C  0.61649272  0.57277098  0.18067044    -0.25300
C492        C  0.63877796  0.59324422  0.15635847     0.27400
H493        H  0.57839438  0.60757119  0.11640736     0.13200
N494        N  0.52960673  0.56850787  0.15890481    -0.82500
H495        H  0.62721164  0.56302683  0.19855392     0.18000
N496        N  0.67533853  0.60084157  0.15491916    -0.81100
H497        H  0.52381037  0.58014582  0.14017483     0.33700
H498        H  0.51387881  0.54084794  0.15601397     0.38200
H499        H  0.68152158  0.58975660  0.17383602     0.33600
H500        H  0.67762842  0.58815273  0.13536440     0.30300
H501        H  0.60440993  0.56696399  0.04949918     0.33600
H502        H  0.61405006  0.55705946  0.08441783     0.30300
H503        H  0.74999411  0.71359461  0.08439850     0.38200
H504        H  0.72880630  0.72265712  0.11184591     0.33700
C505        C  0.07283214  0.08142027  0.00074694    -0.20100
C506        C  0.08404222  0.10618743  0.47401345     0.36100
C507        C  0.11758787  0.13739679  0.47619446    -0.26100
C508        C  0.14029809  0.14403817  0.50178116     0.02600
C509        C  0.12947565  0.12120494  0.02752685     0.27400
C510        C  0.09572379  0.08988699  0.02653381    -0.25200
N511        N  0.06361644  0.10026728  0.44604612    -0.82600
H512        H  0.12643871  0.15632867  0.45732628     0.13200
C513        C  0.17663909  0.17628760  0.50196151     0.02500
N514        N  0.15292232  0.12857585  0.05369432    -0.81100
H515        H  0.08734412  0.07151785  0.04579849     0.18000
C516        C  0.18545653  0.20356101  0.02545388    -0.26000
C517        C  0.21843791  0.23581289  0.02524165     0.36000
C518        C  0.24272476  0.24287071  0.00095477    -0.20000
C519        C  0.23510133  0.21328637  0.47866659    -0.25300
C520        C  0.20155201  0.18172531  0.47874758     0.27400
H521        H  0.16646914  0.19848530  0.04365983     0.13200
N522        N  0.22687812  0.26176156  0.04915490    -0.82500
H523        H  0.25410222  0.21753696  0.46068876     0.18000
N524        N  0.19273196  0.15495782  0.45552253    -0.81100
H525        H  0.20630834  0.25233946  0.06533100     0.33700
H526        H  0.22811253  0.28436573  0.03903626     0.38200
H527        H  0.21396730  0.16295713  0.44018803     0.33600
H528        H  0.18953728  0.13195729  0.46651624     0.30300
H529        H  0.14075056  0.10849943  0.07026767     0.33600
H530        H  0.17562334  0.12789323  0.04623463     0.30300
H531        H  0.04037536  0.07526949  0.44568872     0.38200
H532        H  0.05572218  0.11954734  0.44483245     0.33700
C533        C  0.34079797  0.33801009  0.44260575    -0.20100
C534        C  0.35519307  0.37529714  0.44021493     0.36100
C535        C  0.37384157  0.39321988  0.41360882    -0.26100
C536        C  0.37850022  0.37469898  0.38937324     0.02600
C537        C  0.36297345  0.33723554  0.39122223     0.27400
C538        C  0.34397575  0.31916564  0.41780358    -0.25200
N539        N  0.35117608  0.39485481  0.46503729    -0.82600
H540        H  0.38577860  0.42197160  0.41211709     0.13200
C541        C  0.40169520  0.39542557  0.36324475     0.02500
N542        N  0.36721072  0.31789624  0.36636783    -0.81100
H543        H  0.33295622  0.29056150  0.41972540     0.18000
C544        C  0.43381906  0.39525386  0.35844873    -0.26000
C545        C  0.45829266  0.41698024  0.33584298     0.36000
C546        C  0.45000724  0.43882179  0.31697503    -0.20000
C547        C  0.41753953  0.43863214  0.32177604    -0.25300
C548        C  0.39341505  0.41728032  0.34472140     0.27400
H549        H  0.44038470  0.37895752  0.37320217     0.13200
N550        N  0.49186961  0.41757909  0.33270792    -0.82500
H551        H  0.41081546  0.45516091  0.30751582     0.18000
N552        N  0.36057586  0.41775499  0.34939705    -0.81100
H553        H  0.49338074  0.39953172  0.34792895     0.33700
H554        H  0.51231043  0.44299251  0.33927622     0.38200
H555        H  0.35856153  0.43541880  0.33405233     0.33600
H556        H  0.33927156  0.39227060  0.34421745     0.30300
H557        H  0.35449874  0.29061301  0.37142254     0.33600
H558        H  0.35401857  0.32066443  0.34708415     0.30300
H559        H  0.32375625  0.38584275  0.46724320     0.38200
H560        H  0.36350770  0.42206282  0.45974934     0.33700
C561        C  0.35002977  0.33937174  0.05288371    -0.20100
C562        C  0.38712694  0.36509817  0.05170844     0.36100
C563        C  0.40551435  0.38197581  0.07888050    -0.26100
C564        C  0.38815869  0.37316071  0.10729470     0.02600
C565        C  0.35168453  0.34661804  0.10881920     0.27400
C566        C  0.33292855  0.33007572  0.08158209    -0.25200
N567        N  0.40617531  0.37396733  0.02308383    -0.82600
H568        H  0.43360420  0.40239288  0.07791166     0.13200
C569        C  0.40855410  0.39293618  0.13501215     0.02500
N570        N  0.33387896  0.33674288  0.13800234    -0.81100
H571        H  0.30466435  0.31028986  0.08277530     0.18000
C572        C  0.39677455  0.41276942  0.15169250    -0.26000
C573        C  0.41678301  0.43403951  0.17675835     0.36000
C574        C  0.44981451  0.43614947  0.18476355    -0.20000
C575        C  0.46096041  0.41540745  0.16843267    -0.25300
C576        C  0.44056808  0.39366848  0.14380747     0.27400
H577        H  0.37208021  0.41202108  0.14480284     0.13200
N578        N  0.40359865  0.45337206  0.19396854    -0.82500
H579        H  0.48603668  0.41653816  0.17451437     0.18000
N580        N  0.45233673  0.37253765  0.12749014    -0.81100
H581        H  0.37929567  0.44933239  0.18467111     0.33700
H582        H  0.39797789  0.44259954  0.21617476     0.38200
H583        H  0.47654928  0.37624933  0.13671518     0.33600
H584        H  0.43322609  0.34567428  0.13093072     0.30300
H585        H  0.30701205  0.31690833  0.13515367     0.33600
H586        H  0.34619046  0.32551310  0.15127989     0.30300
H587        H  0.40657215  0.35122284  0.01556770     0.38200
H588        H  0.43298220  0.39382732  0.02627827     0.33700
C589        C  0.28025157  0.27213517  0.50050104     0.80000
N590        N  0.29918340  0.28704971  0.52684081    -0.78300
C591        C  0.33134872  0.31784298  0.52597319     0.82400
N592        N  0.34004146  0.33970020  0.99710717    -0.78200
C593        C  0.32113607  0.32537303  0.97083792     0.82500
N594        N  0.29002160  0.29350711  0.97193018    -0.80000
C595        C  0.74944872  0.73597546  0.99968146     0.80000
N596        N  0.73786926  0.71714052  0.52722270    -0.78300
C597        C  0.70832938  0.68390476  0.52712829     0.82400
N598        N  0.69086119  0.66994159  0.99787516    -0.78200
C599        C  0.70502358  0.68736090  0.97111647     0.82500
N600        N  0.73424886  0.72058035  0.97225801    -0.80000
O601        O  0.55960041  0.51923099  0.71917576    -0.74600
O602        O  0.49672794  0.46112629  0.78355866    -0.74700
O603        O  0.49634996  0.45668100  0.72155418    -0.74700
O604        O  0.55997648  0.52322378  0.78099055    -0.74800
O605        O  0.53079649  0.55369749  0.77795043    -0.74700
O606        O  0.46660091  0.48648853  0.71832248    -0.74700
O607        O  0.46732870  0.49134994  0.78035601    -0.74700
O608        O  0.52957873  0.54889228  0.71588006    -0.74700
Ni609      Ni  0.52919019  0.48898622  0.75144115     1.25400
Ni610      Ni  0.49750402  0.52116973  0.74803435     1.25400
C611        C  0.55489488  0.54369250  0.70691101     0.87500
C612        C  0.47158739  0.46663995  0.79259134     0.87500
C613        C  0.47082426  0.46039571  0.71007039     0.87500
C614        C  0.55637799  0.54969298  0.78899441     0.87700
C615        C  0.73049896  0.99829005  0.49994086     0.80000
N616        N  0.71419319  0.99983538  0.52614295    -0.78300
C617        C  0.68093963  0.99641804  0.52462403     0.82400
N618        N  0.66383773  0.99025374  0.49705625    -0.78200
C619        C  0.67663562  0.98112186  0.97131154     0.82500
N620        N  0.71046224  0.98624318  0.97247966    -0.80000
C621        C  0.27934838  0.02329954  0.49862532     0.80000
N622        N  0.29627931  0.02767144  0.52629793    -0.78300
C623        C  0.32774329  0.02746964  0.52826888     0.82400
N624        N  0.34167467  0.02220969  0.50241312    -0.78200
C625        C  0.31967773  0.00788352  0.97434219     0.82500
N626        N  0.28920158  0.01017453  0.97295537    -0.81200
O627        O  0.51005920  0.96831847  0.71570332    -0.74600
O628        O  0.45239069  0.97042502  0.78136529    -0.74700
O629        O  0.45043691  0.97453820  0.71945353    -0.74700
O630        O  0.51220777  0.96421873  0.77773985    -0.74800
O631        O  0.54644170  0.02328438  0.78013693    -0.74700
O632        O  0.48448379  0.03370099  0.72252628    -0.74700
O633        O  0.48716073  0.02957909  0.78448286    -0.74700
O634        O  0.54405681  0.02743028  0.71825909    -0.74700
Ni635      Ni  0.48005002  0.96725157  0.74848336     1.25400
Ni636      Ni  0.51674420  0.03058262  0.75142027     1.25400
C637        C  0.53679828  0.99752125  0.70619662     0.87500
C638        C  0.46015928  0.00037179  0.79361331     0.87500
C639        C  0.45706870  0.00587215  0.71159641     0.87500
C640        C  0.53977348  0.99213155  0.78849293     0.87700
C641        C  0.99490678  0.27429223  0.50245142     0.80000
N642        N  0.00078325  0.29359237  0.97639611    -0.78300
C643        C  0.00062022  0.32489415  0.97723472     0.82400
N644        N  0.99962984  0.33860245  0.00489462    -0.78200
C645        C  0.99243316  0.31895640  0.53162551     0.82500
N646        N  0.99408354  0.28842125  0.53018089    -0.80000
C647        C  0.01714909  0.75188259  0.00114635     0.80000
N648        N  0.00824808  0.73063481  0.52830382    -0.78300
C649        C  0.00713396  0.69866512  0.52785969     0.82400
N650        N  0.01848715  0.68986120  0.99817574    -0.78200
C651        C  0.01950057  0.70717534  0.97177306     0.82500
N652        N  0.01837844  0.73810290  0.97327438    -0.80000
O653        O  0.03474676  0.49474360  0.78397637    -0.74600
O654        O  0.03743298  0.55540130  0.71837902    -0.74700
O655        O  0.04019132  0.56007245  0.78062037    -0.74700
O656        O  0.03182010  0.49007800  0.72201997    -0.74800
O657        O  0.97222650  0.46437701  0.72326819    -0.74700
O658        O  0.98060053  0.53440339  0.78164958    -0.74700
O659        O  0.97784292  0.52961575  0.71948284    -0.74700
O660        O  0.97514507  0.46937092  0.78532935    -0.74700
Ni661      Ni  0.03817639  0.52600673  0.75119045     1.25400
Ni662      Ni  0.97435125  0.49855800  0.75245580     1.25400
C663        C  0.00447962  0.47207146  0.79549934     0.87500
C664        C  0.00807688  0.55253437  0.70802016     0.87500
C665        C  0.01169666  0.55876556  0.79091147     0.87500
C666        C  0.00066212  0.46543788  0.71317939     0.87700
C667        C  0.03814210  0.04612413  0.49727659     0.02100
C668        C  0.03929901  0.01385682  0.49570305     0.02100
C669        C  0.00694502  0.98054702  0.49616251     0.02100
C670        C  0.97352067  0.97950781  0.49700256     0.02100
C671        C  0.97218286  0.01151525  0.49874939     0.02100
C672        C  0.00454398  0.04496356  0.49916855     0.02100
C673        C  0.00803359  0.78131496  0.50195484    -0.20100
C674        C  0.03324052  0.81124684  0.02576205     0.36100
C675        C  0.02989186  0.84204252  0.02621368    -0.26100
C676        C  0.00600111  0.84576045  0.50099213     0.02600
C677        C  0.98361614  0.81763915  0.48094561     0.27400
C678        C  0.98520357  0.78589878  0.48135401    -0.25200
N679        N  0.05676277  0.80761302  0.04745501    -0.82600
H680        H  0.04499810  0.86282637  0.04299230     0.13200
C681        C  0.00643008  0.88033992  0.50011072     0.02500
N682        N  0.95920171  0.82139863  0.46042813    -0.81100
H683        H  0.96805715  0.76434148  0.46586725     0.18000
C684        C  0.01696871  0.90086270  0.47310817    -0.26000
C685        C  0.01753362  0.93359281  0.47138731     0.36000
C686        C  0.00768736  0.94632901  0.49713573    -0.20000
C687        C  0.99741878  0.92587614  0.02827934    -0.25300
C688        C  0.99671932  0.89303063  0.02983349     0.27400
H689        H  0.02473805  0.89136545  0.45321981     0.13200
N690        N  0.02764254  0.95353159  0.44331889    -0.82500
H691        H  0.98917742  0.93509266  0.04805422     0.18000
N692        N  0.98417349  0.87163271  0.05706203    -0.81100
H693        H  0.01024286  0.93737977  0.42589463     0.33700
H694        H  0.05352971  0.95893192  0.43785408     0.38200
H695        H  0.00027503  0.88672914  0.07553983     0.33600
H696        H  0.95858100  0.86680118  0.55792331     0.30300
H697        H  0.94462164  0.79832810  0.44719476     0.33600
H698        H  0.94056047  0.82389854  0.47391831     0.30300
H699        H  0.04069959  0.78767988  0.06310421     0.38200
H700        H  0.07108059  0.83094871  0.06044345     0.33700
C701        C  0.01427313  0.58493621  0.81444671    -0.20100
C702        C  0.04586119  0.61834864  0.81904734     0.36100
C703        C  0.04724579  0.64085666  0.84302651    -0.26100
C704        C  0.01770032  0.63093166  0.86219893     0.02600
C705        C  0.98604722  0.59805499  0.85733240     0.27400
C706        C  0.98452763  0.57560932  0.83338664    -0.25200
N707        N  0.07635025  0.62939703  0.79944710    -0.82600
H708        H  0.07156022  0.66614324  0.84701479     0.13200
C709        C  0.02099254  0.65364284  0.88894129     0.02500
N710        N  0.95589455  0.58718352  0.87731836    -0.81100
H711        H  0.96026616  0.55008490  0.83020003     0.18000
C712        C  0.00183340  0.67214838  0.88926124    -0.26000
C713        C  0.00168998  0.69094021  0.91566605     0.36000
C714        C  0.02144018  0.69140259  0.94207214    -0.20000
C715        C  0.04126212  0.67354290  0.94124244    -0.25300
C716        C  0.04103787  0.65450944  0.91509974     0.27400
H717        H  0.98612409  0.67099463  0.86915984     0.13200
N718        N  0.98044652  0.70817706  0.91613376    -0.82500
H719        H  0.05639051  0.67372925  0.96144301     0.18000
N720        N  0.06025239  0.63515562  0.91527836    -0.81100
H721        H  0.96765272  0.70536493  0.89487363     0.33700
H722        H  0.96011403  0.69483027  0.93225654     0.38200
H723        H  0.07377487  0.63860210  0.93626023     0.33600
H724        H  0.04133217  0.60796953  0.91359454     0.30300
H725        H  0.93459199  0.56230951  0.87062727     0.33600
H726        H  0.96375777  0.58379402  0.89936276     0.30300
H727        H  0.06870816  0.63267293  0.77727679     0.38200
H728        H  0.09744375  0.65435831  0.80622323     0.33700
C729        C  0.00510910  0.67933081  0.55657648    -0.20100
C730        C  0.98298494  0.64181106  0.55809843     0.36100
C731        C  0.98404746  0.62357684  0.58447498    -0.26100
C732        C  0.00638880  0.64200643  0.60943129     0.02600
C733        C  0.02748585  0.67952885  0.60858169     0.27400
C734        C  0.02655979  0.69796673  0.58207692    -0.25200
N735        N  0.95940613  0.62237647  0.53287745    -0.82600
H736        H  0.96765758  0.59473785  0.58551640     0.13200
C737        C  0.00763240  0.62109553  0.63592516     0.02500
N738        N  0.04991787  0.69854629  0.63446928    -0.81100
H739        H  0.04334282  0.72674809  0.58095044     0.18000
C740        C  0.03821344  0.61792671  0.64070344    -0.26000
C741        C  0.03901721  0.59529389  0.66368734     0.36000
C742        C  0.00876416  0.57620548  0.68281689    -0.20000
C743        C  0.97829091  0.57981007  0.67793495    -0.25300
C744        C  0.97739972  0.60194412  0.65462643     0.27400
H745        H  0.06104795  0.63225243  0.62570539     0.13200
N746        N  0.07000653  0.59101051  0.66699988    -0.82500
H747        H  0.95500585  0.56539405  0.69241854     0.18000
N748        N  0.94583606  0.60490225  0.64963450    -0.81100
H749        H  0.08994892  0.60738236  0.65146329     0.33700
H750        H  0.06215383  0.56469260  0.66099114     0.38200
H751        H  0.92575772  0.58883218  0.66516617     0.33600
H752        H  0.95274626  0.63130289  0.65431135     0.30300
H753        H  0.06383477  0.72601283  0.63012864     0.33600
H754        H  0.03309722  0.69451975  0.65307912     0.30300
H755        H  0.94036506  0.63062495  0.53077655     0.38200
H756        H  0.94519306  0.59499998  0.53762371     0.33700
C757        C  0.00300244  0.07876430  0.50020584    -0.20100
C758        C  0.01677739  0.10220201  0.02750371     0.36100
C759        C  0.01553947  0.13404625  0.02671785    -0.26100
C760        C  0.99926679  0.14224309  0.50018905     0.02600
C761        C  0.98403811  0.11787802  0.47560710     0.27400
C762        C  0.98644134  0.08662783  0.47571035    -0.25200
N763        N  0.03219666  0.09397870  0.05364001    -0.82600
H764        H  0.02682980  0.15268077  0.04571393     0.13200
C765        C  0.99780994  0.17588031  0.50076141     0.02500
N766        N  0.96587523  0.12481326  0.45083576    -0.81100
H767        H  0.97535515  0.06821177  0.45655440     0.18000
C768        C  0.01475617  0.20038381  0.97756942    -0.26000
C769        C  0.01506954  0.23298050  0.97724464     0.36000
C770        C  0.99633727  0.24065573  0.50124806    -0.20000
C771        C  0.98114559  0.21588146  0.52536912    -0.25300
C772        C  0.98139515  0.18347576  0.52523026     0.27400
H773        H  0.02718465  0.19415538  0.95885676     0.13200
N774        N  0.03174247  0.25722105  0.95218432    -0.82500
H775        H  0.96835946  0.22147406  0.54417699     0.18000
N776        N  0.96464415  0.15801274  0.54963777    -0.81100
H777        H  0.05847955  0.26322558  0.95103851     0.33700
H778        H  0.01873570  0.24420002  0.93180791     0.38200
H779        H  0.95382907  0.16764882  0.56589789     0.33600
H780        H  0.94307063  0.13508847  0.54004640     0.30300
H781        H  0.95618917  0.10425536  0.43458061     0.33600
H782        H  0.94340177  0.12462956  0.46004497     0.30300
H783        H  0.01214385  0.07076897  0.06389661     0.38200
H784        H  0.04106329  0.11419160  0.07018344     0.33700
C785        C  0.99340469  0.33633852  0.56132779    -0.20100
C786        C  0.97945820  0.31715339  0.58904775     0.36100
C787        C  0.97912599  0.33561656  0.61560436    -0.26100
C788        C  0.99284184  0.37263779  0.61497931     0.02600
C789        C  0.00735610  0.39182188  0.58766709     0.27400
C790        C  0.00747598  0.37355138  0.56122343    -0.25200
N791        N  0.96467071  0.27910378  0.59002721    -0.82600
H792        H  0.96814961  0.32117758  0.63685135     0.13200
C793        C  0.99223219  0.39171979  0.64287132     0.02500
N794        N  0.02210635  0.42991293  0.58699663    -0.81100
H795        H  0.01864798  0.38864122  0.54029102     0.18000
C796        C  0.02280418  0.40791524  0.66183057    -0.26000
C797        C  0.02556575  0.43078771  0.68589400     0.36000
C798        C  0.99739544  0.43827550  0.69051120    -0.20000
C799        C  0.96595554  0.42034787  0.67241718    -0.25300
C800        C  0.96314986  0.39719771  0.64857658     0.27400
H801        H  0.04491550  0.40328361  0.65734000     0.13200
N802        N  0.05689673  0.44645656  0.70550150    -0.82500
H803        H  0.94398709  0.42540894  0.67608554     0.18000
N804        N  0.93121142  0.37973671  0.62976584    -0.81100
H805        H  0.07510638  0.43845314  0.69878128     0.33700
H806        H  0.04863641  0.43634540  0.72767993     0.38200
H807        H  0.91211425  0.38622907  0.63721099     0.33600
H808        H  0.93802388  0.38968995  0.60738828     0.30300
H809        H  0.03235456  0.44015208  0.56524704     0.33600
H810        H  0.00110713  0.43506884  0.59062237     0.30300
H811        H  0.98603667  0.27415130  0.58813780     0.38200
H812        H  0.95318515  0.26899292  0.61146192     0.33700
C813        C  0.00365086  0.44876450  0.82084323    -0.20100
C814        C  0.97842540  0.43832157  0.84482838     0.36100
C815        C  0.98022723  0.41796136  0.86928176    -0.26100
C816        C  0.00625864  0.40746584  0.87011048     0.02600
C817        C  0.03099848  0.41717782  0.84598940     0.27400
C818        C  0.02952038  0.43788146  0.82158483    -0.25200
N819        N  0.95199225  0.44948354  0.84499492    -0.82600
H820        H  0.96122627  0.41019873  0.88793336     0.13200
C821        C  0.00744426  0.38702855  0.89701107     0.02500
N822        N  0.05774102  0.40643439  0.84664143    -0.81100
H823        H  0.04872214  0.44567563  0.80309777     0.18000
C824        C  0.99975159  0.35170512  0.89327019    -0.26000
C825        C  0.99706624  0.33043919  0.91887885     0.36000
C826        C  0.00298847  0.34531475  0.94881843    -0.20000
C827        C  0.01153465  0.38113323  0.95209641    -0.25300
C828        C  0.01384313  0.40204917  0.92660613     0.27400
H829        H  0.99458688  0.34036009  0.87034411     0.13200
N830        N  0.98752735  0.29379443  0.91445477    -0.82500
H831        H  0.01658686  0.39318048  0.97471089     0.18000
N832        N  0.02246728  0.43852162  0.93060434    -0.81100
H833        H  0.98518912  0.28759076  0.89102425     0.33700
H834        H  0.96201710  0.27786684  0.92378558     0.38200
H835        H  0.02595718  0.44542400  0.95391892     0.33600
H836        H  0.04716646  0.45480296  0.92007742     0.30300
H837        H  0.07371740  0.41557224  0.82701799     0.33600
H838        H  0.07471818  0.41895245  0.86548565     0.30300
H839        H  0.93304819  0.43508407  0.82782760     0.38200
H840        H  0.93791942  0.44233908  0.86569659     0.33700
C841        C  0.24463488  0.02304956  0.49691434    -0.20100
C842        C  0.23694331  0.04394474  0.51706158     0.36100
C843        C  0.20301023  0.04136428  0.51573613    -0.26100
C844        C  0.17667847  0.01862213  0.49465037     0.02600
C845        C  0.18104367  0.99390983  0.97771611     0.27400
C846        C  0.21443380  0.99523425  0.97799194    -0.25200
N847        N  0.26366098  0.06798150  0.53857693    -0.82600
H848        H  0.19700199  0.05726224  0.53117644     0.13200
C849        C  0.14108563  0.01640526  0.49467099     0.02500
N850        N  0.15223720  0.96879428  0.95829514    -0.81100
H851        H  0.21842204  0.97750405  0.96310754     0.18000
C852        C  0.13023102  0.02869284  0.97318087    -0.26000
C853        C  0.09746789  0.02853368  0.97304981     0.36000
C854        C  0.07458629  0.01486600  0.49470257    -0.20000
C855        C  0.08498116  0.00130624  0.51976589    -0.25300
C856        C  0.11779202  0.00151832  0.51983822     0.27400
H857        H  0.14783579  0.03924772  0.95355303     0.13200
N858        N  0.08734978  0.04232002  0.94696536    -0.82500
H859        H  0.06733150  0.99049649  0.53933728     0.18000
N860        N  0.12764734  0.98673593  0.54534719    -0.81100
H861        H  0.10689300  0.05099443  0.92989955     0.33700
H862        H  0.06372502  0.02174491  0.93738137     0.38200
H863        H  0.10763522  0.97699209  0.56205668     0.33600
H864        H  0.12902098  0.96474427  0.53716345     0.30300
H865        H  0.16008473  0.95289238  0.94636520     0.33600
H866        H  0.14713474  0.98324953  0.94161968     0.30300
H867        H  0.28483357  0.08774593  0.52586874     0.38200
H868        H  0.25353862  0.08101050  0.55187340     0.33700
C869        C  0.33603111  0.00240746  0.94643813    -0.20100
C870        C  0.36016351  0.98899911  0.94873712     0.36100
C871        C  0.37962475  0.98961774  0.92283983    -0.26100
C872        C  0.37488376  0.00229074  0.89451442     0.02600
C873        C  0.34949708  0.01376412  0.89159506     0.27400
C874        C  0.33021857  0.01365142  0.91760788    -0.25200
N875        N  0.36487149  0.97474337  0.97729848    -0.82600
H876        H  0.39861369  0.98007273  0.92466732     0.13200
C877        C  0.39678456  0.00314814  0.86814308     0.02500
N878        N  0.34408875  0.02627017  0.86240272    -0.81100
H879        H  0.31172118  0.02375499  0.91559022     0.18000
C880        C  0.37997241  0.98011041  0.84323454    -0.26000
C881        C  0.40008136  0.97904319  0.81841026     0.36000
C882        C  0.43779304  0.00132855  0.81874970    -0.20000
C883        C  0.45448762  0.02492430  0.84343698    -0.25300
C884        C  0.43434289  0.02597240  0.86823319     0.27400
H885        H  0.35108302  0.96274775  0.84332604     0.13200
N886        N  0.38232332  0.95583317  0.79269598    -0.82500
H887        H  0.48340256  0.04215304  0.84360830     0.18000
N888        N  0.45178539  0.04994432  0.89357688    -0.81100
H889        H  0.35459391  0.94118547  0.79612779     0.33700
H890        H  0.38633803  0.97195815  0.77340562     0.38200
H891        H  0.47952762  0.06474222  0.89020511     0.33600
H892        H  0.44257771  0.06823891  0.89384751     0.30300
H893        H  0.32440394  0.03365990  0.86407010     0.33600
H894        H  0.36802314  0.04940244  0.85680044     0.30300
H895        H  0.34046085  0.95188672  0.98235534     0.38200
H896        H  0.38387995  0.96651894  0.97510857     0.33700
C897        C  0.43312341  0.00980793  0.68905845    -0.20100
C898        C  0.43097232  0.04143066  0.68705645     0.36100
C899        C  0.41030727  0.04491337  0.66342146    -0.26100
C900        C  0.39172445  0.01745693  0.64208652     0.02600
C901        C  0.39255441  0.98540379  0.64474166     0.27400
C902        C  0.41304967  0.98177224  0.66834105    -0.25200
N903        N  0.45003280  0.07001197  0.70869535    -0.82600
H904        H  0.40959255  0.06953190  0.66096934     0.13200
C905        C  0.37587967  0.02426869  0.61444753     0.02500
N906        N  0.37382853  0.95736050  0.62256126    -0.81100
H907        H  0.41445759  0.95745138  0.66976226     0.18000
C908        C  0.39659555  0.03534958  0.58787004    -0.26000
C909        C  0.38222748  0.03895754  0.55991402     0.36000
C910        C  0.34575293  0.03027536  0.55836193    -0.20000
C911        C  0.32570193  0.02129571  0.58564643    -0.25300
C912        C  0.34050656  0.01816429  0.61377944     0.27400
H913        H  0.42404956  0.04062426  0.58891255     0.13200
N914        N  0.40456592  0.05108452  0.53311895    -0.82500
H915        H  0.29799115  0.01517552  0.58483632     0.18000
N916        N  0.31970376  0.00823917  0.64145014    -0.81100
H917        H  0.43036739  0.05560945  0.53817739     0.33700
H918        H  0.40742698  0.07574652  0.52677322     0.38200
H919        H  0.29426888  0.00502577  0.63707962     0.33600
H920        H  0.31567782  0.98329713  0.64837262     0.30300
H921        H  0.37772473  0.93577689  0.62734915     0.33600
H922        H  0.34635748  0.94800448  0.62490452     0.30300
H923        H  0.43890410  0.06055742  0.73036614     0.38200
H924        H  0.44602781  0.09147012  0.70362318     0.33700
C925        C  0.93652163  0.00967393  0.49975264    -0.20100
C926        C  0.92454767  0.01850179  0.52655709     0.36100
C927        C  0.89104916  0.01673336  0.52657206    -0.26100
C928        C  0.86837006  0.00401618  0.99946854     0.02600
C929        C  0.88191111  0.99703010  0.97254343     0.27400
C930        C  0.91618100  0.00027006  0.97327762    -0.25200
N931        N  0.94605526  0.02869865  0.55399866    -0.82600
H932        H  0.88253445  0.02442631  0.54712173     0.13200
C933        C  0.83235169  0.00096375  0.99988310     0.02500
N934        N  0.86057378  0.98609939  0.94479873    -0.81100
H935        H  0.92681721  0.99514989  0.95266675     0.18000
C936        C  0.82515865  0.02274673  0.98042900    -0.26000
C937        C  0.79273088  0.02249117  0.47881081     0.36000
C938        C  0.76669659  0.00216269  0.50109113    -0.20000
C939        C  0.77195789  0.97534093  0.02041316    -0.25300
C940        C  0.80544563  0.97690842  0.01997729     0.27400
H941        H  0.84601643  0.04149844  0.96530573     0.13200
N942        N  0.78559917  0.04257057  0.45609431    -0.82500
H943        H  0.75110495  0.95659583  0.03554307     0.18000
N944        N  0.81208466  0.95372480  0.03941712    -0.81100
H945        H  0.80746004  0.05598535  0.44137504     0.33700
H946        H  0.78283096  0.06219638  0.46766440     0.38200
H947        H  0.78956323  0.93759698  0.05277042     0.33600
H948        H  0.81598422  0.93657829  0.02515545     0.30300
H949        H  0.87441275  0.98195776  0.92714537     0.33600
H950        H  0.83776288  0.96137260  0.94911174     0.30300
H951        H  0.95054509  0.05385597  0.56060525     0.38200
H952        H  0.93124556  0.01056130  0.57131939     0.33700
C953        C  0.65775772  0.97598162  0.94145173    -0.20100
C954        C  0.61987886  0.95604950  0.93916903     0.36100
C955        C  0.60294611  0.95594410  0.91132466    -0.26100
C956        C  0.62304013  0.97471514  0.88559936     0.02600
C957        C  0.66088108  0.99255512  0.88723693     0.27400
C958        C  0.67786693  0.99304392  0.91517718    -0.25200
N959        N  0.59874120  0.93630082  0.96515842    -0.82600
H960        H  0.57387788  0.94220026  0.90999872     0.13200
C961        C  0.60405871  0.97848072  0.85836772     0.02500
N962        N  0.68182748  0.01081306  0.86070502    -0.81100
H963        H  0.70692221  0.00799442  0.91672583     0.18000
C964        C  0.61279917  0.01285946  0.84875642    -0.26000
C965        C  0.59360522  0.01817445  0.82498432     0.36000
C966        C  0.56374683  0.98821098  0.81126297    -0.20000
C967        C  0.55583907  0.95370109  0.82031775    -0.25300
C968        C  0.57593565  0.94855789  0.84346471     0.27400
H969        H  0.63441243  0.03580435  0.86032368     0.13200
N970        N  0.60419192  0.05393183  0.81523783    -0.82500
H971        H  0.53362118  0.93052511  0.80958360     0.18000
N972        N  0.56774105  0.91312705  0.85211831    -0.81100
H973        H  0.62557458  0.07271812  0.82870695     0.33700
H974        H  0.61399147  0.05692670  0.79287209     0.38200
H975        H  0.54621850  0.89401031  0.83900030     0.33600
H976        H  0.59002452  0.91057280  0.84678745     0.30300
H977        H  0.70927447  0.02290115  0.86580647     0.33600
H978        H  0.67641380  0.99159147  0.84381716     0.30300
H979        H  0.60499776  0.91630334  0.97012969     0.38200
H980        H  0.57134363  0.92332377  0.95964419     0.33700
C981        C  0.55968752  0.99712275  0.68086455    -0.20100
C982        C  0.55749403  0.96515982  0.67010677     0.36100
C983        C  0.57901686  0.96657524  0.64538616    -0.26100
C984        C  0.60334806  0.99913586  0.63165080     0.02600
C985        C  0.60626002  0.03107061  0.64278440     0.27400
C986        C  0.58432770  0.02970524  0.66706027    -0.25200
N987        N  0.53368345  0.93139444  0.68424415    -0.82600
H988        H  0.57670008  0.94207032  0.63663321     0.13200
C989        C  0.62465522  0.99930466  0.60488380     0.02500
N990        N  0.63152930  0.06479450  0.62936674    -0.81100
H991        H  0.58648587  0.05438611  0.67511387     0.18000
C992        C  0.62181147  0.01442861  0.57712446    -0.26000
C993        C  0.64072292  0.01456691  0.55107366     0.36000
C994        C  0.66288672  0.99904753  0.55248155    -0.20000
C995        C  0.66623152  0.98436378  0.58037048    -0.25300
C996        C  0.64718364  0.98418146  0.60659949     0.27400
H997        H  0.60446368  0.02593692  0.57555119     0.13200
N998        N  0.63766925  0.03097291  0.52331164    -0.82500
H999        H  0.68306705  0.97227017  0.58149844     0.18000
N1000       N  0.65048637  0.96860614  0.63489194    -0.81100
H1001       H  0.64578534  0.05764419  0.52813331     0.33700
H1002       H  0.61060478  0.01814174  0.51668325     0.38200
H1003       H  0.66778700  0.95834348  0.63222784     0.33600
H1004       H  0.66242261  0.98904766  0.65120051     0.30300
H1005       H  0.63018062  0.08573700  0.64000805     0.33600
H1006       H  0.65729635  0.06890603  0.63376564     0.30300
H1007       H  0.54323998  0.93203293  0.70660611     0.38200
H1008       H  0.53460369  0.91058175  0.67291586     0.33700
C1009       C  0.78447199  0.77041141  0.49999943    -0.20100
C1010       C  0.80981243  0.78149604  0.02157956     0.36100
C1011       C  0.84030886  0.81566438  0.02071938    -0.26100
C1012       C  0.84495904  0.83997301  0.49808726     0.02600
C1013       C  0.81595114  0.83029670  0.47737830     0.27400
C1014       C  0.78623202  0.79546819  0.47829841    -0.25200
N1015       N  0.80818207  0.75596866  0.04361190    -0.82600
H1016       H  0.86213348  0.82207615  0.03684151     0.13200
C1017       C  0.87717881  0.87633694  0.49772237     0.02500
N1018       N  0.81659536  0.85598048  0.45580596    -0.81100
H1019       H  0.76398339  0.78805215  0.46240883     0.18000
C1020       C  0.89555482  0.89089998  0.97204214    -0.26000
C1021       C  0.92685538  0.92444272  0.97125911     0.36000
C1022       C  0.93960886  0.94438619  0.49621334    -0.20000
C1023       C  0.92046521  0.93116664  0.52359811    -0.25300
C1024       C  0.88919097  0.89750247  0.52459241     0.27400
H1025       H  0.88641547  0.87524362  0.95109932     0.13200
N1026       N  0.94452250  0.93717573  0.94221580    -0.82500
H1027       H  0.93017277  0.94720404  0.54430722     0.18000
N1028       N  0.86948684  0.88475400  0.55272746    -0.81100
H1029       H  0.92649180  0.93943467  0.92726630     0.33700
H1030       H  0.96678730  0.96274407  0.94405719     0.38200
H1031       H  0.88202307  0.90343000  0.57037219     0.33600
H1032       H  0.84429425  0.88240963  0.54910434     0.30300
H1033       H  0.79328532  0.84458492  0.44217180     0.33600
H1034       H  0.81649607  0.87645677  0.46842091     0.30300
H1035       H  0.81062924  0.76675471  0.06558158     0.38200
H1036       H  0.83022911  0.75239222  0.04020538     0.33700
C1037       C  0.68742651  0.67004693  0.94141762    -0.20100
C1038       C  0.69459044  0.68901356  0.91319119     0.36100
C1039       C  0.67387830  0.67158129  0.88693014    -0.26100
C1040       C  0.64712315  0.63565154  0.88809663     0.02600
C1041       C  0.64116865  0.61615514  0.91548149     0.27400
C1042       C  0.66122493  0.63351138  0.94183724    -0.25200
N1043       N  0.72232369  0.72580648  0.91115727    -0.82600
H1044       H  0.67866721  0.68595569  0.86538711     0.13200
C1045       C  0.62591337  0.61799329  0.86030514     0.02500
N1046       N  0.61491070  0.57871022  0.91628330    -0.81100
H1047       H  0.65598479  0.61827345  0.96291458     0.18000
C1048       C  0.63769637  0.60014323  0.84115335    -0.26000
C1049       C  0.61626875  0.57923948  0.81657721     0.36000
C1050       C  0.58186578  0.57542710  0.81174614    -0.20000
C1051       C  0.57112277  0.59516668  0.82994199    -0.25300
C1052       C  0.59291679  0.61648219  0.85428367     0.27400
H1053       H  0.66342572  0.60201930  0.84582784     0.13200
N1054       N  0.62928227  0.56179678  0.79666343    -0.82500
H1055       H  0.54511039  0.59288569  0.82597495     0.18000
N1056       N  0.58155100  0.63616595  0.87317647    -0.81100
H1057       H  0.65487029  0.56714237  0.80362633     0.33700
H1058       H  0.63208314  0.57291184  0.77471663     0.38200
H1059       H  0.55684280  0.63257853  0.86538775     0.33600
H1060       H  0.57737737  0.62549654  0.89538546     0.30300
H1061       H  0.61431133  0.56803622  0.93807151     0.33600
H1062       H  0.58962959  0.57612088  0.91261133     0.30300
H1063       H  0.74694409  0.72659433  0.91364274     0.38200
H1064       H  0.72249458  0.73604683  0.88924905     0.33700
C1065       C  0.69015123  0.66472362  0.55606579    -0.20100
C1066       C  0.69987245  0.68041379  0.58575661     0.36100
C1067       C  0.67881147  0.66158948  0.61132746    -0.26100
C1068       C  0.64882709  0.62731677  0.60800198     0.02600
C1069       C  0.64020008  0.61096644  0.57888841     0.27400
C1070       C  0.66069481  0.62974238  0.55338141    -0.25200
N1071       N  0.73060228  0.71534442  0.58999176    -0.82600
H1072       H  0.68556296  0.67378096  0.63393498     0.13200
C1073       C  0.62603236  0.60845743  0.63485164     0.02500
N1074       N  0.61039584  0.57527000  0.57535478    -0.81100
H1075       H  0.65313230  0.61675928  0.53113767     0.18000
C1076       C  0.58993678  0.59985545  0.63437902    -0.26000
C1077       C  0.56623472  0.57880201  0.65762309     0.36000
C1078       C  0.57904279  0.56632084  0.68208360    -0.20000
C1079       C  0.61540001  0.57557021  0.68284114    -0.25300
C1080       C  0.63906566  0.59661263  0.65947558     0.27400
H1081       H  0.58005858  0.60893226  0.61530235     0.13200
N1082       N  0.52903213  0.56922919  0.65595170    -0.82500
H1083       H  0.62535608  0.56631796  0.70172361     0.18000
N1084       N  0.67607485  0.60550608  0.66035515    -0.81100
H1085       H  0.52412273  0.58079733  0.63666461     0.33700
H1086       H  0.51389182  0.54156353  0.65283542     0.38200
H1087       H  0.68144122  0.59495127  0.68010382     0.33600
H1088       H  0.68033998  0.59314769  0.64154613     0.30300
H1089       H  0.60733505  0.56709258  0.55238819     0.33600
H1090       H  0.61646103  0.55817618  0.58788444     0.30300
H1091       H  0.75339142  0.71331061  0.58562096     0.38200
H1092       H  0.73286668  0.72344853  0.61292822     0.33700
C1093       C  0.07255946  0.08101286  0.49840679    -0.20100
C1094       C  0.08390506  0.10555548  0.97556307     0.36100
C1095       C  0.11728057  0.13706579  0.97692805    -0.26100
C1096       C  0.14045779  0.14499866  0.00236538     0.02600
C1097       C  0.12868931  0.11941976  0.52630695     0.27400
C1098       C  0.09494589  0.08828251  0.52438284    -0.25200
N1099       N  0.06322970  0.09825971  0.94757893    -0.82600
H1100       H  0.12555015  0.15529766  0.95756260     0.13200
C1101       C  0.17624646  0.17814899  0.00202823     0.02500
N1102       N  0.15151228  0.12576817  0.55275191    -0.81100
H1103       H  0.08611620  0.06915190  0.54309407     0.18000
C1104       C  0.18626350  0.20182720  0.52531473    -0.26000
C1105       C  0.22007468  0.23314980  0.52558293     0.36000
C1106       C  0.24470210  0.23908393  0.50181871    -0.20000
C1107       C  0.23355244  0.21736550  0.97760645    -0.25300
C1108       C  0.20081086  0.18488769  0.97810994     0.27400
H1109       H  0.16703556  0.19754914  0.54309261     0.13200
N1110       N  0.22905862  0.25926322  0.54945087    -0.82500
H1111       H  0.25229506  0.22256582  0.95915514     0.18000
N1112       N  0.19249833  0.15854614  0.95459165    -0.81100
H1113       H  0.20815801  0.25062785  0.56524119     0.33700
H1114       H  0.23167115  0.28237783  0.53917772     0.38200
H1115       H  0.21334290  0.16757906  0.93870773     0.33600
H1116       H  0.19083201  0.13597200  0.96517733     0.30300
H1117       H  0.13884213  0.10518252  0.56882260     0.33600
H1118       H  0.17427502  0.12512500  0.54542167     0.30300
H1119       H  0.04014047  0.07316526  0.94784103     0.38200
H1120       H  0.05513079  0.11733205  0.94546222     0.33700
C1121       C  0.33561052  0.34436189  0.94149320    -0.20100
C1122       C  0.35251023  0.38202080  0.94009143     0.36100
C1123       C  0.37126049  0.39988968  0.91353320    -0.26100
C1124       C  0.37350532  0.38092807  0.88848514     0.02600
C1125       C  0.35514694  0.34331007  0.88912891     0.27400
C1126       C  0.33606178  0.32527592  0.91564831    -0.25200
N1127       N  0.35106955  0.40197177  0.96587192    -0.82600
H1128       H  0.38521707  0.42881415  0.91269546     0.13200
C1129       C  0.39739400  0.40119605  0.86279047     0.02500
N1130       N  0.35689405  0.32376411  0.86320800    -0.81100
H1131       H  0.32306921  0.29641436  0.91673099     0.18000
C1132       C  0.43115901  0.40380577  0.86106561    -0.26000
C1133       C  0.45615426  0.42541298  0.83876729     0.36000
C1134       C  0.44665591  0.44402800  0.81715334    -0.20000
C1135       C  0.41259101  0.44112915  0.81900226    -0.25300
C1136       C  0.38795418  0.42001833  0.84169875     0.27400
H1137       H  0.43840860  0.38977838  0.87786770     0.13200
N1138       N  0.49139331  0.42928157  0.83867605    -0.82500
H1139       H  0.40504431  0.45528010  0.80260287     0.18000
N1140       N  0.35351819  0.41780835  0.84364828    -0.81100
H1141       H  0.49381672  0.41359523  0.85590171     0.33700
H1142       H  0.50979600  0.45584108  0.84425668     0.38200
H1143       H  0.35078994  0.43347937  0.82658684     0.33600
H1144       H  0.33387430  0.39136115  0.83910896     0.30300
H1145       H  0.34223611  0.29629504  0.86744702     0.33600
H1146       H  0.34432890  0.32868404  0.84459182     0.30300
H1147       H  0.32421838  0.39491774  0.96883596     0.38200
H1148       H  0.36513376  0.42937697  0.96121283     0.33700
C1149       C  0.35200850  0.33432927  0.55479140    -0.20100
C1150       C  0.38868746  0.36153071  0.55435471     0.36100
C1151       C  0.40604331  0.37809837  0.58198350    -0.26100
C1152       C  0.38799415  0.36782434  0.60998761     0.02600
C1153       C  0.35223193  0.33980068  0.61090930     0.27400
C1154       C  0.33449112  0.32335606  0.58329490    -0.25200
N1155       N  0.40832018  0.37239672  0.52603799    -0.82600
H1156       H  0.43373978  0.39956236  0.58170257     0.13200
C1157       C  0.40656240  0.38833999  0.63783251     0.02500
N1158       N  0.33405541  0.32857673  0.63985861    -0.81100
H1159       H  0.30663839  0.30238605  0.58407332     0.18000
C1160       C  0.39754407  0.41305492  0.64915988    -0.26000
C1161       C  0.41702901  0.43600047  0.67354799     0.36000
C1162       C  0.44668685  0.43447113  0.68648000    -0.20000
C1163       C  0.45448796  0.40837836  0.67574936    -0.25300
C1164       C  0.43465943  0.38528525  0.65158463     0.27400
H1165       H  0.37562475  0.41490667  0.63842547     0.13200
N1166       N  0.40698813  0.46101653  0.68474378    -0.82500
H1167       H  0.47666657  0.40640936  0.68571351     0.18000
N1168       N  0.44330609  0.35921132  0.64049611    -0.81100
H1169       H  0.38554470  0.45947605  0.67187495     0.33700
H1170       H  0.39756289  0.45332247  0.70715240     0.38200
H1171       H  0.46486760  0.36050472  0.65298783     0.33600
H1172       H  0.42118123  0.33395017  0.64465967     0.30300
H1173       H  0.30774240  0.30766392  0.63660348     0.33600
H1174       H  0.34730591  0.31832022  0.65312898     0.30300
H1175       H  0.41058587  0.35082614  0.51806998     0.38200
H1176       H  0.43452417  0.39333471  0.52979384     0.33700
loop_ 
_geom_bond_atom_site_label_1 
_geom_bond_atom_site_label_2 
_geom_bond_distance 
_geom_bond_site_symmetry_2 
_ccdc_geom_bond_type 
C1            N2   1.361   1_556  A
C1          N594   1.363       .  A
C1          C518   1.483   1_556  S
N2            C3   1.359       .  A
C3          N592   1.353   1_554  A
C3          C561   1.485       .  S
N4            C5   1.354       .  A
N4          C591   1.355       .  A
C5            N6   1.360       .  A
C5          C533   1.478       .  S
N6          C589   1.363       .  A
C7           N12   1.359       .  A
C7          N596   1.364       .  A
C7         C1009   1.481       .  S
N8            C9   1.362       .  A
N8          C595   1.364   1_554  A
C9          N598   1.356   1_554  A
C9          C477   1.499       .  S
N10          C11   1.354       .  A
N10         C597   1.356       .  A
C11          N12   1.356       .  A
C11         C449   1.485       .  S
O13         Ni21   1.924       .  S
O13          C23   1.283       .  A
O14         Ni21   1.923       .  S
O14          C24   1.283       .  A
O15         Ni21   1.906       .  S
O15          C25   1.280       .  A
O16         Ni21   1.904       .  S
O16          C26   1.279       .  A
O17         Ni22   1.919       .  S
O17          C26   1.282       .  A
O18         Ni22   1.917       .  S
O18          C25   1.282       .  A
O19         Ni22   1.917       .  S
O19          C24   1.282       .  A
O20         Ni22   1.917       .  S
O20          C23   1.281       .  A
Ni21        Ni22   2.385       .  S
C23         C490   1.484       .  S
C24         C546   1.492       .  S
C25         C574   1.483       .  S
C26         C462   1.478       .  S
C27          N28   1.362   1_556  A
C27         N620   1.358       .  A
C27         C350   1.476   1_556  S
N28          C29   1.362       .  A
C29          N30   1.357   1_554  A
C29         C406   1.484       .  S
N30         C619   1.355       .  A
C31          N32   1.356       .  A
C31         N618   1.353       .  A
C31         C365   1.477       .  S
N32         C615   1.359       .  A
C33          N34   1.361   1_556  A
C33         N626   1.365       .  A
C33         C253   1.483       .  S
N34          C35   1.357       .  A
C35          N36   1.350       .  A
C35         C322   1.485       .  S
N36         C625   1.351   1_554  A
C37          N38   1.362       .  A
C37         N624   1.352       .  A
C37         C281   1.491       .  S
N38         C621   1.366       .  A
O39         Ni47   1.923       .  S
O39          C49   1.282       .  A
O40         Ni47   1.923       .  S
O40          C50   1.282   1_565  A
O41         Ni47   1.911       .  S
O41          C51   1.281   1_565  A
O42         Ni47   1.914       .  S
O42          C52   1.281       .  A
O43         Ni48   1.904       .  S
O43          C52   1.279   1_545  A
O44         Ni48   1.909       .  S
O44          C51   1.280       .  A
O45         Ni48   1.913       .  S
O45          C50   1.280       .  A
O46         Ni48   1.915       .  S
O46          C49   1.282   1_545  A
Ni47        Ni48   2.384   1_565  S
C49         C393   1.494       .  S
C50         C294   1.480       .  S
C51         C309   1.478       .  S
C52         C378   1.485       .  S
C53          N58   1.363       .  A
C53         N642   1.360   1_654  A
C53         C182   1.483       .  S
N54          C55   1.359       .  A
N54         C641   1.362       .  A
C55          N56   1.355       .  A
C55         C238   1.493       .  S
N56         C645   1.353       .  A
C57          N58   1.358       .  A
C57         N644   1.354       .  A
C57         C197   1.493       .  S
C59          N64   1.364       .  A
C59         N648   1.362       .  A
C59         C673   1.484       .  S
N60          C61   1.356       .  A
N60         C647   1.360       .  A
C61         N650   1.354   1_554  A
C61         C141   1.476       .  S
N62          C63   1.353       .  A
N62         C649   1.353       .  A
C63          N64   1.361       .  A
C63         C126   1.480       .  S
O65         Ni73   1.914       .  S
O65          C75   1.281   1_455  A
O66         Ni73   1.917       .  S
O66          C76   1.281       .  A
O67         Ni73   1.912       .  S
O67          C77   1.280       .  A
O68         Ni73   1.910       .  S
O68          C78   1.279       .  A
O69         Ni74   1.925       .  S
O69          C78   1.284   1_655  A
O70         Ni74   1.924       .  S
O70          C77   1.283   1_655  A
O71         Ni74   1.914       .  S
O71          C76   1.281   1_655  A
O72         Ni74   1.911       .  S
O72          C75   1.279       .  A
Ni73        Ni74   2.383   1_455  S
C75         C225   1.476       .  S
C76         C154   1.486       .  S
C77         C113   1.490       .  S
C78         C210   1.493       .  S
C79         C505   1.499       .  S
C79          C80   1.419   1_554  A
C79          C84   1.421       .  A
C80         C266   1.492       .  S
C80          C81   1.418   1_546  A
C81          C98   1.493       .  S
C81          C82   1.414   1_454  A
C82         C434   1.491       .  S
C82          C83   1.413   1_566  A
C83         C337   1.493       .  S
C83          C84   1.419   1_655  A
C84         C169   1.489       .  S
C85         C647   1.485       .  S
C85          C90   1.404   1_454  A
C85         C674   1.417       .  A
C86          C87   1.408       .  A
C86         C673   1.415       .  A
C86          N91   1.438       .  S
C87         C676   1.402       .  A
C87          H92   1.084       .  S
C88          C93   1.485       .  S
C88          C89   1.411   1_454  A
C88         C675   1.402       .  A
C89          C90   1.406       .  A
C89          N94   1.438       .  S
C90          H95   1.084       .  S
N91         H111   1.045       .  S
N91         H112   1.046       .  S
C93          C96   1.402   1_554  A
C93         C688   1.409   1_455  A
N94         H109   1.045       .  S
N94         H110   1.046       .  S
C96          C97   1.400       .  A
C96         H101   1.084       .  S
C97          C98   1.408   1_556  A
C97         N102   1.429       .  S
C98         C687   1.405   1_455  A
C99         C100   1.404       .  A
C99         C686   1.404   1_655  A
C99         H103   1.084       .  S
C100        C681   1.408   1_655  A
C100        N104   1.432       .  S
N102        H105   1.045       .  S
N102        H106   1.046       .  S
N104        H107   1.045   1_655  S
N104        H696   1.046       .  S
H108        N692   1.046       .  S
C113        C114   1.418       .  A
C113        C118   1.408   1_455  A
C114        C115   1.405       .  A
C114        N119   1.438       .  S
C115        C116   1.401       .  A
C115        H120   1.084       .  S
C116        C121   1.485       .  S
C116        C117   1.409   1_455  A
C117        C118   1.407       .  A
C117        N122   1.438       .  S
C118        H123   1.083       .  S
N119        H139   1.046       .  S
N119        H140   1.045       .  S
C121        C124   1.404   1_455  A
C121        C128   1.410       .  A
N122        H137   1.045       .  S
N122        H138   1.046       .  S
C124        C125   1.409       .  A
C124        H129   1.083       .  S
C125        C126   1.412   1_655  A
C125        N130   1.437       .  S
C126        C127   1.405       .  A
C127        C128   1.402       .  A
C127        H131   1.084       .  S
C128        N132   1.438       .  S
N130        H133   1.046       .  S
N130        H134   1.046       .  S
N132        H135   1.045       .  S
N132        H136   1.046       .  S
C141        C142   1.413   1_455  A
C141        C146   1.404       .  A
C142        C143   1.402       .  A
C142        N147   1.438       .  S
C143        C144   1.400   1_655  A
C143        H148   1.084       .  S
C144        C149   1.478       .  S
C144        C145   1.409       .  A
C145        C146   1.407       .  A
C145        N150   1.437       .  S
C146        H151   1.084       .  S
N147        H167   1.046       .  S
N147        H168   1.046       .  S
C149        C152   1.400       .  A
C149        C156   1.406   1_455  A
N150        H165   1.046       .  S
N150        H166   1.046       .  S
C152        C153   1.406       .  A
C152        H157   1.084       .  S
C153        C154   1.417       .  A
C153        N158   1.438       .  S
C154        C155   1.407   1_455  A
C155        C156   1.403       .  A
C155        H159   1.083       .  S
C156        N160   1.438       .  S
N158        H161   1.045       .  S
N158        H162   1.046       .  S
N160        H163   1.045       .  S
N160        H164   1.046       .  S
C169        C174   1.403   1_454  A
C169        C758   1.411       .  A
C170        C171   1.405       .  A
C170        C757   1.413       .  A
C170        N175   1.438       .  S
C171        C760   1.403   1_455  A
C171        H176   1.084       .  S
C172        C177   1.483       .  S
C172        C173   1.410   1_554  A
C172        C759   1.403   1_655  A
C173        C174   1.402       .  A
C173        N178   1.438       .  S
C174        H179   1.083       .  S
N175        H195   1.043       .  S
N175        H196   1.046       .  S
C177        C184   1.410       .  A
C177        C768   1.402   1_654  A
N178        H193   1.045       .  S
N178        H194   1.046       .  S
C180        C181   1.404       .  A
C180        C765   1.403   1_455  A
C180        H185   1.084       .  S
C181        C770   1.413   1_455  A
C181        N186   1.432       .  S
C182        C183   1.405       .  A
C182        C769   1.414   1_654  A
C183        C184   1.404       .  A
C183        H187   1.083       .  S
C184        N188   1.438       .  S
N186        H189   1.046       .  S
N186        H190   1.046       .  S
N188        H191   1.045       .  S
N188        H192   1.046       .  S
C197        C198   1.420       .  A
C197        C202   1.410   1_655  A
C198        C199   1.411       .  A
C198        N203   1.437       .  S
C199        C200   1.401       .  A
C199        H204   1.084       .  S
C200        C205   1.477       .  S
C200        C201   1.404   1_655  A
C201        C202   1.398       .  A
C201        N206   1.439       .  S
C202        H207   1.083       .  S
N203        H223   1.046   1_655  S
N203        H224   1.046       .  S
C205        C208   1.398   1_655  A
C205        C212   1.406       .  A
N206        H221   1.046       .  S
N206        H222   1.045   1_455  S
C208        C209   1.404       .  A
C208        H213   1.084       .  S
C209        C210   1.421       .  A
C209        N214   1.438       .  S
C210        C211   1.409   1_455  A
C211        C212   1.406       .  A
C211        H215   1.083       .  S
C212        N216   1.438       .  S
N214        H217   1.045       .  S
N214        H218   1.046       .  S
N216        H219   1.045       .  S
N216        H220   1.046       .  S
C225        C226   1.413       .  A
C225        C230   1.404   1_655  A
C226        C227   1.404       .  A
C226        N231   1.438       .  S
C227        C228   1.403       .  A
C227        H232   1.084       .  S
C228        C233   1.483       .  S
C228        C229   1.410   1_655  A
C229        C230   1.403       .  A
C229        N234   1.438       .  S
C230        H235   1.084       .  S
N231        H251   1.045       .  S
N231        H252   1.046       .  S
C233        C236   1.403       .  A
C233        C240   1.407       .  A
N234        H249   1.046       .  S
N234        H250   1.046       .  S
C236        C237   1.408       .  A
C236        H241   1.084       .  S
C237        C238   1.418       .  A
C237        N242   1.437       .  S
C238        C239   1.410       .  A
C239        C240   1.399       .  A
C239        H243   1.083       .  S
C240        N244   1.439       .  S
N242        H245   1.046       .  S
N242        H246   1.045       .  S
N244        H247   1.046       .  S
N244        H248   1.046   1_655  S
C253        C254   1.415   1_556  A
C253        C846   1.405   1_545  A
C254        C255   1.405       .  A
C254        N259   1.438       .  S
C255        C256   1.401   1_554  A
C255        H260   1.084       .  S
C256        C261   1.481       .  S
C256        C845   1.410   1_545  A
C257        C258   1.408   1_565  A
C257        C844   1.410   1_565  A
C257        N262   1.438       .  S
C258        C841   1.406       .  A
C258        H263   1.083   1_545  S
N259        H279   1.046       .  S
N259        H280   1.046       .  S
C261        C268   1.410   1_556  A
C261        C852   1.401       .  A
N262        H277   1.046       .  S
N262        H278   1.044       .  S
C264        C265   1.406       .  A
C264        C849   1.402       .  A
C264        H269   1.084       .  S
C265        C854   1.414       .  A
C265        N270   1.437       .  S
C266        C267   1.403   1_556  A
C266        C853   1.413       .  A
C267        C268   1.405       .  A
C267        H271   1.084   1_545  S
C268        N272   1.437   1_545  S
N270        H273   1.046       .  S
N270        H274   1.044       .  S
N272        H275   1.046       .  S
N272        H276   1.045       .  S
C281        C282   1.421       .  A
C281        C286   1.406       .  A
C282        C283   1.403       .  A
C282        N287   1.439   1_545  S
C283        C284   1.398       .  A
C283        H288   1.084   1_545  S
C284        C289   1.482       .  S
C284        C285   1.409       .  A
C285        C286   1.409       .  A
C285        N290   1.437       .  S
C286        H291   1.083       .  S
N287        H307   1.046       .  S
N287        H308   1.046       .  S
C289        C292   1.402   1_545  A
C289        C296   1.410       .  A
N290        H305   1.046       .  S
N290        H306   1.046       .  S
C292        C293   1.407       .  A
C292        H297   1.084       .  S
C293        C294   1.413   1_565  A
C293        N298   1.437       .  S
C294        C295   1.405       .  A
C295        C296   1.405       .  A
C295        H299   1.084       .  S
C296        N300   1.438       .  S
N298        H301   1.046       .  S
N298        H302   1.046       .  S
N300        H303   1.046       .  S
N300        H304   1.045       .  S
C309        C310   1.417       .  A
C309        C314   1.405   1_545  A
C310        C311   1.404       .  A
C310        N315   1.438       .  S
C311        C312   1.398       .  A
C311        H316   1.084       .  S
C312        C317   1.469       .  S
C312        C313   1.406   1_545  A
C313        C314   1.400       .  A
C313        N318   1.438       .  S
C314        H319   1.083       .  S
N315        H335   1.046       .  S
N315        H336   1.046       .  S
C317        C320   1.395       .  A
C317        C324   1.405       .  A
N318        H333   1.046       .  S
N318        H334   1.045       .  S
C320        C321   1.397       .  A
C320        H325   1.084       .  S
C321        C322   1.420       .  A
C321        N326   1.439       .  S
C322        C323   1.409       .  A
C323        C324   1.406       .  A
C323        H327   1.083       .  S
C324        N328   1.437       .  S
N326        H329   1.046       .  S
N326        H330   1.045       .  S
N328        H331   1.045       .  S
N328        H332   1.046   1_545  S
C337        C338   1.406       .  A
C337        C930   1.404   1_554  A
C338        C339   1.402       .  A
C338        N343   1.430       .  S
C339        C928   1.403   1_554  A
C339        H344   1.084       .  S
C340        C345   1.488       .  S
C340        C341   1.413   1_545  A
C340        C927   1.403       .  A
C341        C342   1.407       .  A
C341        N346   1.438       .  S
C342        C925   1.403   1_565  A
C342        H347   1.083       .  S
N343        H363   1.046       .  S
N343        H364   1.045       .  S
C345        C348   1.403       .  A
C345        C352   1.413   1_545  A
N346        H361   1.046       .  S
N346        H362   1.046       .  S
C348        C937   1.405       .  A
C348        H353   1.084       .  S
C349        C350   1.412   1_546  A
C349        C936   1.407       .  A
C349        N354   1.438       .  S
C350        C939   1.401       .  A
C351        C352   1.407       .  A
C351        C938   1.402   1_565  A
C351        H355   1.084       .  S
C352        N356   1.438       .  S
N354        H357   1.046       .  S
N354        H358   1.046       .  S
N356        H359   1.046       .  S
N356        H360   1.045       .  S
C365        C366   1.414       .  A
C365        C370   1.404       .  A
C366        C367   1.401       .  A
C366        N371   1.438       .  S
C367        C368   1.400       .  A
C367        H372   1.084       .  S
C368        C373   1.478       .  S
C368        C369   1.410       .  A
C369        C370   1.404       .  A
C369        N374   1.438   1_565  S
C370        H375   1.084   1_565  S
N371        H391   1.045       .  S
N371        H392   1.046       .  S
C373        C376   1.399   1_565  A
C373        C380   1.407       .  A
N374        H389   1.046       .  S
N374        H390   1.045   1_545  S
C376        C377   1.400       .  A
C376        H381   1.084       .  S
C377        C378   1.418   1_545  A
C377        N382   1.438       .  S
C378        C379   1.408       .  A
C379        C380   1.403       .  A
C379        H383   1.083       .  S
C380        N384   1.438       .  S
N382        H385   1.046       .  S
N382        H386   1.045       .  S
N384        H387   1.046       .  S
N384        H388   1.046       .  S
C393        C394   1.419       .  A
C393        C398   1.409   1_565  A
C394        C395   1.408       .  A
C394        N399   1.438       .  S
C395        C396   1.401       .  A
C395        H400   1.084       .  S
C396        C401   1.485       .  S
C396        C397   1.408   1_565  A
C397        C398   1.405       .  A
C397        N402   1.438       .  S
C398        H403   1.083       .  S
N399        H419   1.046       .  S
N399        H420   1.046       .  S
C401        C404   1.400   1_565  A
C401        C408   1.411       .  A
N402        H417   1.046       .  S
N402        H418   1.045       .  S
C404        C405   1.400       .  A
C404        H409   1.084       .  S
C405        C406   1.413   1_545  A
C405        N410   1.433       .  S
C406        C407   1.405       .  A
C407        C408   1.410       .  A
C407        H411   1.083       .  S
C408        N412   1.437       .  S
N410        H413   1.046       .  S
N410        H414   1.045       .  S
N412        H415   1.046       .  S
N412        H416   1.045       .  S
C421        C595   1.484   1_554  S
C421        C426   1.406   1_554  A
C421       C1010   1.409       .  A
C422        C423   1.403       .  A
C422       C1009   1.408       .  A
C422        N427   1.432       .  S
C423       C1012   1.404       .  A
C423        H428   1.084       .  S
C424        C429   1.492       .  S
C424        C425   1.414       .  A
C424       C1011   1.404   1_556  A
C425        C426   1.408       .  A
C425        N430   1.438       .  S
C426        H431   1.084       .  S
N427        H447   1.046       .  S
N427        H448   1.045       .  S
C429        C436   1.413   1_556  A
C429       C1020   1.405       .  A
N430        H445   1.046       .  S
N430        H446   1.046       .  S
C432        C433   1.401       .  A
C432       C1017   1.404       .  A
C432        H437   1.084       .  S
C433       C1022   1.417       .  A
C433        N438   1.439       .  S
C434        C435   1.401   1_556  A
C434       C1021   1.416       .  A
C435        C436   1.405       .  A
C435        H439   1.084       .  S
C436        N440   1.437       .  S
N438        H441   1.045       .  S
N438        H442   1.043       .  S
N440        H443   1.046       .  S
N440        H444   1.045       .  S
C449        C450   1.417       .  A
C449        C454   1.408       .  A
C450        C451   1.406       .  A
C450        N455   1.437       .  S
C451        C452   1.399       .  A
C451        H456   1.084       .  S
C452        C457   1.471       .  S
C452        C453   1.404       .  A
C453        C454   1.401       .  A
C453        N458   1.439       .  S
C454        H459   1.083       .  S
N455        H475   1.045       .  S
N455        H476   1.046       .  S
C457        C460   1.397       .  A
C457        C464   1.407       .  A
N458        H473   1.046       .  S
N458        H474   1.046       .  S
C460        C461   1.403       .  A
C460        H465   1.084       .  S
C461        C462   1.416       .  A
C461        N466   1.438       .  S
C462        C463   1.405       .  A
C463        C464   1.403       .  A
C463        H467   1.083       .  S
C464        N468   1.438       .  S
N466        H469   1.046       .  S
N466        H470   1.046       .  S
N468        H471   1.045       .  S
N468        H472   1.046       .  S
C477        C478   1.419       .  A
C477        C482   1.412       .  A
C478        C479   1.411       .  A
C478        N483   1.437       .  S
C479        C480   1.402       .  A
C479        H484   1.084       .  S
C480        C485   1.484       .  S
C480        C481   1.406       .  A
C481        C482   1.403       .  A
C481        N486   1.439       .  S
C482        H487   1.083       .  S
N483        H503   1.045       .  S
N483        H504   1.046       .  S
C485        C488   1.402       .  A
C485        C492   1.409       .  A
N486        H501   1.045       .  S
N486        H502   1.046       .  S
C488        C489   1.406       .  A
C488        H493   1.084       .  S
C489        C490   1.415       .  A
C489        N494   1.438       .  S
C490        C491   1.406       .  A
C491        C492   1.408       .  A
C491        H495   1.084       .  S
C492        N496   1.437       .  S
N494        H497   1.045       .  S
N494        H498   1.046       .  S
N496        H499   1.045       .  S
N496        H500   1.046       .  S
C505        C510   1.406       .  A
C505       C1094   1.420   1_554  A
C506        C507   1.401       .  A
C506       C1093   1.419       .  A
C506        N511   1.438       .  S
C507        C508   1.403       .  A
C507        H512   1.084       .  S
C508        C513   1.486       .  S
C508       C1097   1.409       .  A
C509        C510   1.406       .  A
C509       C1096   1.411       .  A
C509        N514   1.438       .  S
C510        H515   1.084       .  S
N511        H531   1.043       .  S
N511        H532   1.045       .  S
C513        C520   1.411       .  A
C513       C1104   1.403       .  A
N514        H529   1.046       .  S
N514        H530   1.046       .  S
C516        C517   1.407       .  A
C516       C1101   1.403       .  A
C516        H521   1.084       .  S
C517        C518   1.414       .  A
C517        N522   1.438       .  S
C518       C1107   1.404   1_554  A
C519        C520   1.406       .  A
C519       C1106   1.404       .  A
C519        H523   1.084       .  S
C520        N524   1.438       .  S
N522        H525   1.046       .  S
N522        H526   1.046       .  S
N524        H527   1.045       .  S
N524        H528   1.046       .  S
C533        C534   1.412       .  A
C533        C538   1.403       .  A
C534        C535   1.404       .  A
C534        N539   1.438       .  S
C535        C536   1.402       .  A
C535        H540   1.084       .  S
C536        C541   1.486       .  S
C536        C537   1.412       .  A
C537        C538   1.409       .  A
C537        N542   1.437       .  S
C538        H543   1.084       .  S
N539        H559   1.045       .  S
N539        H560   1.046       .  S
C541        C544   1.402       .  A
C541        C548   1.409       .  A
N542        H557   1.046       .  S
N542        H558   1.045       .  S
C544        C545   1.407       .  A
C544        H549   1.084       .  S
C545        C546   1.417       .  A
C545        N550   1.438       .  S
C546        C547   1.409       .  A
C547        C548   1.407       .  A
C547        H551   1.083       .  S
C548        N552   1.438       .  S
N550        H553   1.045       .  S
N550        H554   1.046       .  S
N552        H555   1.045       .  S
N552        H556   1.046       .  S
C561        C562   1.418       .  A
C561        C566   1.406       .  A
C562        C563   1.401       .  A
C562        N567   1.439       .  S
C563        C564   1.400       .  A
C563        H568   1.084       .  S
C564        C569   1.480       .  S
C564        C565   1.408       .  A
C565        C566   1.405       .  A
C565        N570   1.438       .  S
C566        H571   1.083       .  S
N567        H587   1.046       .  S
N567        H588   1.046       .  S
C569        C572   1.402       .  A
C569        C576   1.408       .  A
N570        H585   1.046       .  S
N570        H586   1.046       .  S
C572        C573   1.404       .  A
C572        H577   1.084       .  S
C573        C574   1.415       .  A
C573        N578   1.438       .  S
C574        C575   1.407       .  A
C575        C576   1.402       .  A
C575        H579   1.083       .  S
C576        N580   1.438       .  S
N578        H581   1.045       .  S
N578        H582   1.046       .  S
N580        H583   1.045       .  S
N580        H584   1.046       .  S
C589        N590   1.361       .  A
C589       C1106   1.483       .  S
N590        C591   1.359       .  A
C591       C1149   1.489       .  S
N592        C593   1.353       .  A
C593        N594   1.360       .  A
C593       C1121   1.478       .  S
C595        N600   1.359       .  A
N596        C597   1.362       .  A
C597       C1065   1.498       .  S
N598        C599   1.356       .  A
C599        N600   1.357       .  A
C599       C1037   1.490       .  S
O601       Ni609   1.923       .  S
O601        C611   1.283       .  A
O602       Ni609   1.922       .  S
O602        C612   1.283       .  A
O603       Ni609   1.908       .  S
O603        C613   1.280       .  A
O604       Ni609   1.902       .  S
O604        C614   1.279       .  A
O605       Ni610   1.919       .  S
O605        C614   1.282       .  A
O606       Ni610   1.917       .  S
O606        C613   1.282       .  A
O607       Ni610   1.915       .  S
O607        C612   1.281       .  A
O608       Ni610   1.914       .  S
O608        C611   1.281       .  A
Ni609      Ni610   2.385       .  S
C611       C1078   1.483       .  S
C612       C1134   1.487       .  S
C613       C1162   1.487       .  S
C614       C1050   1.479       .  S
C615        N616   1.363       .  A
C615        C938   1.479   1_565  S
N616        C617   1.362       .  A
C617        N618   1.354       .  A
C617        C994   1.480       .  S
C619        N620   1.357       .  A
C619        C953   1.480       .  S
C621        N622   1.362       .  A
C621        C841   1.487       .  S
N622        C623   1.358       .  A
C623        N624   1.352       .  A
C623        C910   1.486       .  S
C625        N626   1.362       .  A
C625        C869   1.486       .  S
O627       Ni635   1.917       .  S
O627        C637   1.281       .  A
O628       Ni635   1.918       .  S
O628        C638   1.281   1_565  A
O629       Ni635   1.915       .  S
O629        C639   1.281   1_565  A
O630       Ni635   1.918       .  S
O630        C640   1.282       .  A
O631       Ni636   1.909       .  S
O631        C640   1.280   1_545  A
O632       Ni636   1.913       .  S
O632        C639   1.280       .  A
O633       Ni636   1.915       .  S
O633        C638   1.281       .  A
O634       Ni636   1.917       .  S
O634        C637   1.282   1_545  A
Ni635      Ni636   2.384   1_565  S
C637        C981   1.491       .  S
C638        C882   1.478       .  S
C639        C897   1.482       .  S
C640        C966   1.489       .  S
C641        N646   1.363       .  A
C641        C770   1.486       .  S
N642        C643   1.356       .  A
C643        N644   1.354   1_456  A
C643        C826   1.488       .  S
C645        N646   1.358       .  A
C645        C785   1.487       .  S
C647        N652   1.366   1_554  A
N648        C649   1.358       .  A
C649        C729   1.477       .  S
N650        C651   1.355       .  A
C651        N652   1.363       .  A
C651        C714   1.486       .  S
O653       Ni661   1.913       .  S
O653        C663   1.281       .  A
O654       Ni661   1.914       .  S
O654        C664   1.280       .  A
O655       Ni661   1.924       .  S
O655        C665   1.283       .  A
O656       Ni661   1.919       .  S
O656        C666   1.282       .  A
O657       Ni662   1.919       .  S
O657        C666   1.282   1_655  A
O658       Ni662   1.919       .  S
O658        C665   1.282   1_655  A
O659       Ni662   1.912       .  S
O659        C664   1.281   1_655  A
O660       Ni662   1.911       .  S
O660        C663   1.280   1_655  A
Ni661      Ni662   2.385   1_455  S
C663        C813   1.476       .  S
C664        C742   1.484       .  S
C665        C701   1.491       .  S
C666        C798   1.488   1_455  S
C667       C1093   1.496       .  S
C667        C668   1.421       .  A
C667        C672   1.422       .  A
C668        C854   1.496       .  S
C668        C669   1.417   1_545  A
C669        C686   1.495       .  S
C669        C670   1.415   1_455  A
C670       C1022   1.490       .  S
C670        C671   1.415   1_565  A
C671        C925   1.495       .  S
C671        C672   1.420   1_655  A
C672        C757   1.495       .  S
C673        C678   1.405   1_455  A
C674        C675   1.408       .  A
C674        N679   1.438       .  S
C675        H680   1.084       .  S
C676        C681   1.485       .  S
C676        C677   1.410   1_455  A
C677        C678   1.406       .  A
C677        N682   1.438       .  S
C678        H683   1.084       .  S
N679        H699   1.045       .  S
N679        H700   1.046       .  S
C681        C684   1.403       .  A
N682        H697   1.045       .  S
N682        H698   1.046       .  S
C684        C685   1.404       .  A
C684        H689   1.084       .  S
C685        C686   1.409       .  A
C685        N690   1.430       .  S
C687        C688   1.405       .  A
C687        H691   1.084       .  S
C688        N692   1.432       .  S
N690        H693   1.045       .  S
N690        H694   1.046       .  S
N692        H695   1.045   1_655  S
C701        C702   1.417       .  A
C701        C706   1.407   1_455  A
C702        C703   1.410       .  A
C702        N707   1.438       .  S
C703        C704   1.402       .  A
C703        H708   1.084       .  S
C704        C709   1.485       .  S
C704        C705   1.408   1_455  A
C705        C706   1.405       .  A
C705        N710   1.438       .  S
C706        H711   1.083       .  S
N707        H727   1.046       .  S
N707        H728   1.046       .  S
C709        C712   1.405       .  A
C709        C716   1.407       .  A
N710        H725   1.046       .  S
N710        H726   1.046       .  S
C712        C713   1.412       .  A
C712        H717   1.084   1_455  S
C713        C714   1.413       .  A
C713        N718   1.437   1_455  S
C714        C715   1.406       .  A
C715        C716   1.404       .  A
C715        H719   1.084       .  S
C716        N720   1.438       .  S
N718        H721   1.046       .  S
N718        H722   1.046       .  S
N720        H723   1.046       .  S
N720        H724   1.045       .  S
C729        C730   1.414   1_455  A
C729        C734   1.404       .  A
C730        C731   1.400       .  A
C730        N735   1.438       .  S
C731        C732   1.398   1_655  A
C731        H736   1.084       .  S
C732        C737   1.476       .  S
C732        C733   1.409       .  A
C733        C734   1.408       .  A
C733        N738   1.437       .  S
C734        H739   1.084       .  S
N735        H755   1.045       .  S
N735        H756   1.046       .  S
C737        C740   1.400       .  A
C737        C744   1.406   1_455  A
N738        H753   1.046       .  S
N738        H754   1.046       .  S
C740        C741   1.406       .  A
C740        H745   1.084       .  S
C741        C742   1.417       .  A
C741        N746   1.438       .  S
C742        C743   1.407   1_455  A
C743        C744   1.402       .  A
C743        H747   1.083       .  S
C744        N748   1.438       .  S
N746        H749   1.046       .  S
N746        H750   1.046       .  S
N748        H751   1.045       .  S
N748        H752   1.046       .  S
C757        C762   1.405   1_455  A
C758        C759   1.403       .  A
C758        N763   1.438       .  S
C759        H764   1.084       .  S
C760        C765   1.486       .  S
C760        C761   1.410       .  A
C761        C762   1.404       .  A
C761        N766   1.438       .  S
C762        H767   1.083       .  S
N763        H783   1.043       .  S
N763        H784   1.046       .  S
C765        C772   1.410       .  A
N766        H781   1.046       .  S
N766        H782   1.046       .  S
C768        C769   1.402       .  A
C768        H773   1.084       .  S
C769        N774   1.433       .  S
C770        C771   1.406       .  A
C771        C772   1.405       .  A
C771        H775   1.083       .  S
C772        N776   1.438       .  S
N774        H777   1.045       .  S
N774        H778   1.046       .  S
N776        H779   1.045       .  S
N776        H780   1.046       .  S
C785        C786   1.417       .  A
C785        C790   1.407   1_655  A
C786        C787   1.411       .  A
C786        N791   1.437       .  S
C787        C788   1.402       .  A
C787        H792   1.084       .  S
C788        C793   1.478       .  S
C788        C789   1.405   1_655  A
C789        C790   1.400       .  A
C789        N794   1.439       .  S
C790        H795   1.083       .  S
N791        H811   1.045       .  S
N791        H812   1.045       .  S
C793        C796   1.399   1_655  A
C793        C800   1.407       .  A
N794        H809   1.046       .  S
N794        H810   1.045       .  S
C796        C797   1.406       .  A
C796        H801   1.084       .  S
C797        C798   1.416   1_455  A
C797        N802   1.438       .  S
C798        C799   1.408       .  A
C799        C800   1.406       .  A
C799        H803   1.083       .  S
C800        N804   1.438       .  S
N802        H805   1.045       .  S
N802        H806   1.046       .  S
N804        H807   1.046       .  S
N804        H808   1.045       .  S
C813        C814   1.413   1_455  A
C813        C818   1.406       .  A
C814        C815   1.401       .  A
C814        N819   1.438       .  S
C815        C816   1.401   1_655  A
C815        H820   1.084       .  S
C816        C821   1.476       .  S
C816        C817   1.407       .  A
C817        C818   1.404       .  A
C817        N822   1.438       .  S
C818        H823   1.084       .  S
N819        H839   1.045       .  S
N819        H840   1.046       .  S
C821        C824   1.401   1_455  A
C821        C828   1.405       .  A
N822        H837   1.046       .  S
N822        H838   1.045       .  S
C824        C825   1.407       .  A
C824        H829   1.084       .  S
C825        C826   1.418   1_655  A
C825        N830   1.437       .  S
C826        C827   1.409       .  A
C827        C828   1.398       .  A
C827        H831   1.083       .  S
C828        N832   1.439       .  S
N830        H833   1.045       .  S
N830        H834   1.046       .  S
N832        H835   1.046       .  S
N832        H836   1.045       .  S
C841        C842   1.416       .  A
C842        C843   1.406       .  A
C842        N847   1.438       .  S
C843        C844   1.401       .  A
C843        H848   1.084       .  S
C844        C849   1.484       .  S
C845        C846   1.407       .  A
C845        N850   1.438       .  S
C846        H851   1.084       .  S
N847        H867   1.045       .  S
N847        H868   1.046       .  S
C849        C856   1.409       .  A
N850        H865   1.046       .  S
N850        H866   1.044       .  S
C852        C853   1.404       .  A
C852        H857   1.084       .  S
C853        N858   1.438       .  S
C854        C855   1.404       .  A
C855        C856   1.405       .  A
C855        H859   1.083   1_545  S
C856        N860   1.437   1_545  S
N858        H861   1.045       .  S
N858        H862   1.043       .  S
N860        H863   1.046       .  S
N860        H864   1.046       .  S
C869        C870   1.420   1_545  A
C869        C874   1.405       .  A
C870        C871   1.402       .  A
C870        N875   1.439       .  S
C871        C872   1.398   1_565  A
C871        H876   1.084       .  S
C872        C877   1.480       .  S
C872        C873   1.409       .  A
C873        C874   1.408       .  A
C873        N878   1.437       .  S
C874        H879   1.083       .  S
N875        H895   1.045       .  S
N875        H896   1.046       .  S
C877        C880   1.401   1_545  A
C877        C884   1.410       .  A
N878        H893   1.046       .  S
N878        H894   1.046       .  S
C880        C881   1.405       .  A
C880        H885   1.084       .  S
C881        C882   1.413   1_565  A
C881        N886   1.438       .  S
C882        C883   1.404       .  A
C883        C884   1.405       .  A
C883        H887   1.084       .  S
C884        N888   1.438       .  S
N886        H889   1.045       .  S
N886        H890   1.046       .  S
N888        H891   1.046       .  S
N888        H892   1.046       .  S
C897        C898   1.417       .  A
C897        C902   1.405   1_545  A
C898        C899   1.405       .  A
C898        N903   1.438       .  S
C899        C900   1.398       .  A
C899        H904   1.084       .  S
C900        C905   1.473       .  S
C900        C901   1.407   1_545  A
C901        C902   1.402       .  A
C901        N906   1.438       .  S
C902        H907   1.083       .  S
N903        H923   1.046       .  S
N903        H924   1.046       .  S
C905        C908   1.396       .  A
C905        C912   1.407       .  A
N906        H921   1.046       .  S
N906        H922   1.045       .  S
C908        C909   1.399       .  A
C908        H913   1.084       .  S
C909        C910   1.418       .  A
C909        N914   1.438       .  S
C910        C911   1.408       .  A
C911        C912   1.408       .  A
C911        H915   1.083       .  S
C912        N916   1.437       .  S
N914        H917   1.046       .  S
N914        H918   1.045       .  S
N916        H919   1.046       .  S
N916        H920   1.045   1_545  S
C925        C926   1.408       .  A
C926        C927   1.402       .  A
C926        N931   1.430       .  S
C927        H932   1.084       .  S
C928        C933   1.486       .  S
C928        C929   1.412   1_545  A
C929        C930   1.408   1_565  A
C929        N934   1.437       .  S
C930        H935   1.083   1_545  S
N931        H951   1.046       .  S
N931        H952   1.045       .  S
C933        C936   1.404       .  A
C933        C940   1.412   1_546  A
N934        H949   1.045       .  S
N934        H950   1.046       .  S
C936        H941   1.084       .  S
C937        C938   1.413       .  A
C937        N942   1.438       .  S
C939        C940   1.406       .  A
C939        H943   1.084       .  S
C940        N944   1.438       .  S
N942        H945   1.046       .  S
N942        H946   1.045       .  S
N944        H947   1.046       .  S
N944        H948   1.045       .  S
C953        C954   1.414       .  A
C953        C958   1.404       .  A
C954        C955   1.403       .  A
C954        N959   1.438       .  S
C955        C956   1.402       .  A
C955        H960   1.084       .  S
C956        C961   1.483       .  S
C956        C957   1.411       .  A
C957        C958   1.404       .  A
C957        N962   1.438   1_565  S
C958        H963   1.084   1_565  S
N959        H979   1.046       .  S
N959        H980   1.046       .  S
C961        C964   1.400   1_565  A
C961        C968   1.409       .  A
N962        H977   1.046       .  S
N962        H978   1.046   1_545  S
C964        C965   1.402       .  A
C964        H969   1.084       .  S
C965        C966   1.418   1_545  A
C965        N970   1.438       .  S
C966        C967   1.408       .  A
C967        C968   1.405       .  A
C967        H971   1.083       .  S
C968        N972   1.438       .  S
N970        H973   1.046       .  S
N970        H974   1.045       .  S
N972        H975   1.046       .  S
N972        H976   1.045       .  S
C981        C982   1.418       .  A
C981        C986   1.407   1_565  A
C982        C983   1.407       .  A
C982        N987   1.438       .  S
C983        C984   1.402       .  A
C983        H988   1.084       .  S
C984        C989   1.486       .  S
C984        C985   1.410   1_565  A
C985        C986   1.404       .  A
C985        N990   1.438       .  S
C986        H991   1.083       .  S
N987       H1007   1.046       .  S
N987       H1008   1.046       .  S
C989        C992   1.401   1_565  A
C989        C996   1.413       .  A
N990       H1005   1.046       .  S
N990       H1006   1.045       .  S
C992        C993   1.399       .  A
C992        H997   1.084       .  S
C993        C994   1.412   1_545  A
C993        N998   1.433       .  S
C994        C995   1.403       .  A
C995        C996   1.409       .  A
C995        H999   1.084       .  S
C996       N1000   1.437       .  S
N998       H1001   1.046       .  S
N998       H1002   1.046       .  S
N1000      H1003   1.046       .  S
N1000      H1004   1.045       .  S
C1009      C1014   1.405       .  A
C1010      C1011   1.403       .  A
C1010      N1015   1.432       .  S
C1011      H1016   1.084       .  S
C1012      C1017   1.488       .  S
C1012      C1013   1.413       .  A
C1013      C1014   1.407       .  A
C1013      N1018   1.438       .  S
C1014      H1019   1.084       .  S
N1015      H1035   1.046       .  S
N1015      H1036   1.045       .  S
C1017      C1024   1.412       .  A
N1018      H1033   1.046       .  S
N1018      H1034   1.045       .  S
C1020      C1021   1.402       .  A
C1020      H1025   1.084       .  S
C1021      N1026   1.439       .  S
C1022      C1023   1.402       .  A
C1023      C1024   1.405       .  A
C1023      H1027   1.084       .  S
C1024      N1028   1.437       .  S
N1026      H1029   1.046       .  S
N1026      H1030   1.043       .  S
N1028      H1031   1.046       .  S
N1028      H1032   1.045       .  S
C1037      C1038   1.420       .  A
C1037      C1042   1.410       .  A
C1038      C1039   1.407       .  A
C1038      N1043   1.437       .  S
C1039      C1040   1.398       .  A
C1039      H1044   1.084       .  S
C1040      C1045   1.471       .  S
C1040      C1041   1.404       .  A
C1041      C1042   1.400       .  A
C1041      N1046   1.439       .  S
C1042      H1047   1.083       .  S
N1043      H1063   1.045       .  S
N1043      H1064   1.046       .  S
C1045      C1048   1.397       .  A
C1045      C1052   1.407       .  A
N1046      H1061   1.046       .  S
N1046      H1062   1.045       .  S
C1048      C1049   1.401       .  A
C1048      H1053   1.084       .  S
C1049      C1050   1.416       .  A
C1049      N1054   1.438       .  S
C1050      C1051   1.405       .  A
C1051      C1052   1.404       .  A
C1051      H1055   1.083       .  S
C1052      N1056   1.438       .  S
N1054      H1057   1.045       .  S
N1054      H1058   1.046       .  S
N1056      H1059   1.046       .  S
N1056      H1060   1.045       .  S
C1065      C1066   1.419       .  A
C1065      C1070   1.411       .  A
C1066      C1067   1.412       .  A
C1066      N1071   1.437       .  S
C1067      C1068   1.403       .  A
C1067      H1072   1.084       .  S
C1068      C1073   1.485       .  S
C1068      C1069   1.406       .  A
C1069      C1070   1.401       .  A
C1069      N1074   1.439       .  S
C1070      H1075   1.083       .  S
N1071      H1091   1.045       .  S
N1071      H1092   1.046       .  S
C1073      C1076   1.403       .  A
C1073      C1080   1.409       .  A
N1074      H1089   1.046       .  S
N1074      H1090   1.046       .  S
C1076      C1077   1.405       .  A
C1076      H1081   1.084       .  S
C1077      C1078   1.414       .  A
C1077      N1082   1.438       .  S
C1078      C1079   1.406       .  A
C1079      C1080   1.408       .  A
C1079      H1083   1.084       .  S
C1080      N1084   1.437       .  S
N1082      H1085   1.045       .  S
N1082      H1086   1.046       .  S
N1084      H1087   1.045       .  S
N1084      H1088   1.046       .  S
C1093      C1098   1.405       .  A
C1094      C1095   1.402       .  A
C1094      N1099   1.438       .  S
C1095      C1096   1.403   1_556  A
C1095      H1100   1.084       .  S
C1096      C1101   1.490       .  S
C1097      C1098   1.404       .  A
C1097      N1102   1.437       .  S
C1098      H1103   1.084       .  S
N1099      H1119   1.043       .  S
N1099      H1120   1.045       .  S
C1101      C1108   1.412   1_554  A
N1102      H1117   1.046       .  S
N1102      H1118   1.045       .  S
C1104      C1105   1.407       .  A
C1104      H1109   1.084       .  S
C1105      C1106   1.416       .  A
C1105      N1110   1.438       .  S
C1107      C1108   1.407       .  A
C1107      H1111   1.084       .  S
C1108      N1112   1.438       .  S
N1110      H1113   1.046       .  S
N1110      H1114   1.045       .  S
N1112      H1115   1.046       .  S
N1112      H1116   1.046       .  S
C1121      C1122   1.414       .  A
C1121      C1126   1.403       .  A
C1122      C1123   1.403       .  A
C1122      N1127   1.438       .  S
C1123      C1124   1.399       .  A
C1123      H1128   1.084       .  S
C1124      C1129   1.478       .  S
C1124      C1125   1.409       .  A
C1125      C1126   1.408       .  A
C1125      N1130   1.437       .  S
C1126      H1131   1.084       .  S
N1127      H1147   1.045       .  S
N1127      H1148   1.046       .  S
C1129      C1132   1.401       .  A
C1129      C1136   1.406       .  A
N1130      H1145   1.046       .  S
N1130      H1146   1.045       .  S
C1132      C1133   1.406       .  A
C1132      H1137   1.084       .  S
C1133      C1134   1.416       .  A
C1133      N1138   1.438       .  S
C1134      C1135   1.408       .  A
C1135      C1136   1.406       .  A
C1135      H1139   1.083       .  S
C1136      N1140   1.438       .  S
N1138      H1141   1.045       .  S
N1138      H1142   1.046       .  S
N1140      H1143   1.045       .  S
N1140      H1144   1.046       .  S
C1149      C1150   1.420       .  A
C1149      C1154   1.409       .  A
C1150      C1151   1.402       .  A
C1150      N1155   1.438       .  S
C1151      C1152   1.397       .  A
C1151      H1156   1.084       .  S
C1152      C1157   1.474       .  S
C1152      C1153   1.405       .  A
C1153      C1154   1.405       .  A
C1153      N1158   1.437       .  S
C1154      H1159   1.083       .  S
N1155      H1175   1.045       .  S
N1155      H1176   1.046       .  S
C1157      C1160   1.399       .  A
C1157      C1164   1.404       .  A
N1158      H1173   1.046       .  S
N1158      H1174   1.046       .  S
C1160      C1161   1.404       .  A
C1160      H1165   1.084       .  S
C1161      C1162   1.418       .  A
C1161      N1166   1.438       .  S
C1162      C1163   1.410       .  A
C1163      C1164   1.403       .  A
C1163      H1167   1.083       .  S
C1164      N1168   1.438       .  S
N1166      H1169   1.045       .  S
N1166      H1170   1.046       .  S
N1168      H1171   1.045       .  S
N1168      H1172   1.046       .  S
