geometry optimzed in LAMMPS
_audit_creation_date              2020-11-30 
_audit_creation_method            'lammps2cif' 
_symmetry_space_group_name_H-M    'P1' 
_symmetry_Int_Tables_number       1 
_symmetry_cell_setting            triclinic 
loop_ 
_symmetry_equiv_pos_as_xyz 
  x,y,z 
_cell_length_a                    33.21088367 
_cell_length_b                    33.1317415356471 
_cell_length_c                    34.761269733997736 
_cell_angle_alpha                 89.96108333561624 
_cell_angle_beta                  90.12157396481456 
_cell_angle_gamma                 90.08893795282368 
loop_ 
_atom_site_label 
_atom_site_type_symbol 
_atom_site_fract_x 
_atom_site_fract_y 
_atom_site_fract_z 
_atom_site_charge 
C1          C  0.86371576  0.36388687  0.03866656     0.30400
C2          C  0.86336940  0.36571870  0.45935191     0.30400
C3          C  0.82712225  0.38366813  0.01960249    -0.05800
C4          C  0.89953600  0.38530952  0.01952477    -0.06600
C5          C  0.86496927  0.32229827  0.01820137    -0.06500
C6          C  0.82630354  0.38430459  0.47951578    -0.05800
C7          C  0.89860834  0.38712860  0.47957660    -0.06600
C8          C  0.86380948  0.32319982  0.47785766    -0.06500
C9          C  0.78770027  0.39588751  0.46934428    -0.31900
N10         N  0.76688702  0.40480187  0.00172185     0.14600
C11         C  0.79031956  0.39673583  0.03264667    -0.31900
H12         H  0.78058202  0.39833673  0.06229185     0.16600
C13         C  0.93031931  0.41104168  0.46809731    -0.30900
N14         N  0.95109208  0.42283762  0.49981881     0.13400
C15         C  0.93275717  0.40707006  0.03133135    -0.30800
C16         C  0.87180826  0.28452095  0.46517456    -0.31100
N17         N  0.88024298  0.26087316  0.99604312     0.13900
H18         H  0.87537388  0.27529099  0.43560829     0.16500
C19         C  0.87715663  0.28386242  0.02822363    -0.31100
H20         H  0.88651181  0.27401085  0.05655079     0.16500
H21         H  0.94185706  0.41285736  0.06071738     0.16500
H22         H  0.77464693  0.39616149  0.44081461     0.16600
H23         H  0.93638705  0.42102462  0.43904069     0.16500
C24         C  0.86143944  0.36595643  0.20943572     0.30400
C25         C  0.86084950  0.36759014  0.28876969     0.30400
C26         C  0.87725210  0.32776882  0.22970290    -0.05800
C27         C  0.88805227  0.39852007  0.22877073    -0.06600
C28         C  0.82044660  0.37271041  0.22862927    -0.06500
C29         C  0.87562153  0.32791325  0.26988353    -0.05800
C30         C  0.88714518  0.39935947  0.26885177    -0.06600
C31         C  0.81971074  0.37276902  0.26873841    -0.06500
C32         C  0.88745538  0.28995160  0.28179881    -0.31900
N33         N  0.89902293  0.26839346  0.25060929     0.14600
C34         C  0.89300067  0.29110555  0.21867734    -0.31900
H35         H  0.89955887  0.28144157  0.18965946     0.16600
C36         C  0.91376833  0.42852138  0.28102543    -0.30900
N37         N  0.93182900  0.44464951  0.24962896     0.13400
C38         C  0.91687131  0.42634304  0.21775227    -0.30800
C39         C  0.78043600  0.38044417  0.27931788    -0.31100
N40         N  0.75835584  0.38713586  0.24702242     0.13900
H41         H  0.76895795  0.38293963  0.30828169     0.16500
C42         C  0.78227800  0.38162502  0.21590473    -0.31100
H43         H  0.77288273  0.38494695  0.18624723     0.16500
H44         H  0.92753431  0.43221660  0.18890241     0.16500
H45         H  0.88684778  0.27819268  0.31082460     0.16600
H46         H  0.91944601  0.43733878  0.31049180     0.16500
C47         C  0.63250758  0.86553350  0.45697411     0.30400
C48         C  0.63374172  0.86679146  0.03646205     0.30400
C49         C  0.67286093  0.87682014  0.47605513    -0.05800
C50         C  0.60237746  0.89373954  0.47662223    -0.06600
C51         C  0.62352696  0.82487251  0.47730417    -0.06500
C52         C  0.67299501  0.87810337  0.01616189    -0.05800
C53         C  0.60229788  0.89391792  0.01675242    -0.06600
C54         C  0.62332223  0.82588619  0.01763125    -0.06500
C55         C  0.71103625  0.88885676  0.02784562    -0.31900
N56         N  0.73395400  0.89389047  0.99605369     0.14600
C57         C  0.71147213  0.88584518  0.46437068    -0.31900
H58         H  0.72255735  0.88686209  0.43514310     0.16600
C59         C  0.57077743  0.91810740  0.02791664    -0.30900
N60         N  0.55293564  0.93335222  0.99591534     0.13400
C61         C  0.57196702  0.91873217  0.46443901    -0.30800
C62         C  0.60922925  0.78901677  0.03007720    -0.31100
N63         N  0.60268725  0.76527554  0.99897174     0.13900
H64         H  0.60251813  0.78039570  0.05938885     0.16500
C65         C  0.61244447  0.78627693  0.46679450    -0.31100
H66         H  0.61126475  0.77412932  0.43795552     0.16500
H67         H  0.56413678  0.92578532  0.43493203     0.16500
H68         H  0.72123048  0.89327897  0.05713531     0.16600
H69         H  0.56181355  0.92477572  0.05707055     0.16500
C70         C  0.63590168  0.86136565  0.20701502     0.30400
C71         C  0.63227376  0.86066032  0.28640609     0.30400
C72         C  0.67532507  0.87071295  0.22846612    -0.05800
C73         C  0.60608707  0.89109972  0.22579813    -0.06600
C74         C  0.62231964  0.82128669  0.22569015    -0.06500
C75         C  0.67379738  0.87019283  0.26858791    -0.05800
C76         C  0.60497147  0.89094070  0.26582836    -0.06600
C77         C  0.62223363  0.82043089  0.26597958    -0.06500
C78         C  0.71172136  0.88078674  0.28149637    -0.31900
N79         N  0.73569625  0.88794658  0.25061412     0.14600
C80         C  0.71364581  0.88203081  0.21813177    -0.31900
H81         H  0.72441976  0.88683987  0.18911800     0.16600
C82         C  0.57697463  0.91891133  0.27719755    -0.30900
N83         N  0.56053585  0.93577462  0.24528044     0.13400
C84         C  0.57699094  0.91807175  0.21384429    -0.30800
C85         C  0.61181636  0.78177044  0.27668024    -0.31100
N86         N  0.60288826  0.76027743  0.24462991     0.13900
H87         H  0.61027345  0.76994758  0.30560001     0.16500
C88         C  0.60861781  0.78410369  0.21335543    -0.31100
H89         H  0.60227695  0.77526625  0.18401428     0.16500
H90         H  0.56714325  0.92323020  0.18459952     0.16500
H91         H  0.72075432  0.88506664  0.31108099     0.16600
H92         H  0.56880230  0.92620522  0.30648524     0.16500
Zn93       Zn  0.95332447  0.01661551  0.46842673     1.49700
Zn94       Zn  0.01525787  0.04436265  0.03155262     1.49400
Zn95       Zn  0.97953099  0.95372752  0.03285301     1.49100
Zn96       Zn  0.04267320  0.97876085  0.47017370     1.49500
O97         O  0.99768335  0.99841673  0.00075281    -1.83800
O98         O  0.93883154  0.07535463  0.47679307    -0.74400
O99         O  0.00887283  0.03136881  0.08717888    -0.74200
O100        O  0.92166367  0.94007668  0.02316799    -0.73700
O101        O  0.98319846  0.09473627  0.02038284    -0.74400
O102        O  0.90394888  0.98307549  0.47735622    -0.74000
O103        O  0.98563434  0.96812984  0.08794332    -0.74600
O104        O  0.05486498  0.92001340  0.47924582    -0.74000
O105        O  0.07371328  0.05705153  0.02276290    -0.74700
O106        O  0.01050734  0.90280866  0.02358341    -0.74100
O107        O  0.09252405  0.01047410  0.48106642    -0.74600
O108        O  0.03033291  0.98469202  0.41440053    -0.74500
O109        O  0.96836043  0.01051492  0.41346933    -0.74300
C110        C  0.95377981  0.10276172  0.99820152     0.77500
C111        C  0.99728041  0.99995320  0.10499664     0.78000
C112        C  0.89562058  0.95390917  0.99984788     0.76900
C113        C  0.03931520  0.89362788  0.00122139     0.77300
C114        C  0.10075547  0.04072715  0.00208244     0.78500
C115        C  0.99958517  0.99761235  0.39647673     0.77500
Zn116      Zn  0.95454739  0.01913213  0.21988968     1.49700
Zn117      Zn  0.01809604  0.04455209  0.28281435     1.49400
Zn118      Zn  0.98100211  0.95357694  0.28153531     1.49100
Zn119      Zn  0.04313516  0.98149520  0.21862967     1.49500
O120        O  0.99914944  0.99967917  0.25096446    -1.83800
O121        O  0.94276938  0.07767994  0.22918380    -0.74400
O122        O  0.01224848  0.02958715  0.33797197    -0.74200
O123        O  0.92215931  0.94078690  0.27200647    -0.73700
O124        O  0.98690626  0.09611559  0.27334369    -0.74400
O125        O  0.90415604  0.98751930  0.23003849    -0.74000
O126        O  0.98757243  0.96682855  0.33716089    -0.74600
O127        O  0.05820105  0.92390790  0.22815027    -0.74000
O128        O  0.07659268  0.05697533  0.27340187    -0.74700
O129        O  0.01373969  0.90331544  0.27120544    -0.74100
O130        O  0.09245968  0.01415759  0.22714694    -0.74600
O131        O  0.02873342  0.98663743  0.16354273    -0.74500
O132        O  0.96732829  0.01363099  0.16424044    -0.74300
C133        C  0.95777065  0.10464423  0.25087062     0.77500
C134        C  0.00003276  0.99792431  0.35500200     0.78000
C135        C  0.89538888  0.95723407  0.25086280     0.76900
C136        C  0.04393719  0.89644060  0.24966448     0.77300
C137        C  0.10210921  0.04244380  0.24993402     0.78500
C138        C  0.99780162  0.00016687  0.14643128     0.77500
C139        C  0.13138000  0.63232578  0.45854453     0.30400
C140        C  0.13383475  0.63277380  0.03782795     0.30400
C141        C  0.11416147  0.66973103  0.47848082    -0.05800
C142        C  0.10886624  0.59733802  0.47868499    -0.06600
C143        C  0.17349618  0.62867105  0.47715068    -0.06500
C144        C  0.11413497  0.66955900  0.01849990    -0.05800
C145        C  0.10939203  0.59814649  0.01896115    -0.06600
C146        C  0.17453732  0.62950170  0.01739469    -0.06500
C147        C  0.09673139  0.70525523  0.03003315    -0.31900
N148        N  0.08804146  0.72741592  0.49828018     0.14600
C149        C  0.09866962  0.70615892  0.46662074    -0.31900
H150        H  0.09602155  0.71681155  0.43727134     0.16600
C151        C  0.08310943  0.56857127  0.03120716    -0.30900
N152        N  0.06773907  0.54924230  0.50013304     0.13400
C153        C  0.08396164  0.56583497  0.46793197    -0.30800
C154        C  0.21120485  0.61437707  0.02887768    -0.31100
N155        N  0.23218534  0.60374082  0.49715124     0.13900
H156        H  0.22098220  0.60945646  0.05823152     0.16500
C157        C  0.20920693  0.61100191  0.46572925    -0.31100
H158        H  0.21706042  0.60142400  0.43695231     0.16500
H159        H  0.07661952  0.55676491  0.43885827     0.16500
H160        H  0.09210787  0.71524638  0.05928647     0.16600
H161        H  0.07491900  0.56186316  0.06053775     0.16500
C162        C  0.13038777  0.63491271  0.28776873     0.30400
C163        C  0.13216966  0.63513106  0.20850078     0.30400
C164        C  0.16614465  0.61330448  0.26899598    -0.05800
C165        C  0.09471335  0.61376900  0.26730767    -0.06600
C166        C  0.13074327  0.67650828  0.26840593    -0.06500
C167        C  0.16763982  0.61486726  0.22912597    -0.05800
C168        C  0.09511961  0.61463620  0.22703042    -0.06600
C169        C  0.13111042  0.67698721  0.22807357    -0.06500
C170        C  0.20400260  0.59907283  0.21803722    -0.31900
N171        N  0.22379765  0.58597414  0.24986713     0.14600
C172        C  0.20071742  0.59424467  0.28111026    -0.31900
H173        H  0.20935626  0.58828680  0.31059477     0.16600
C174        C  0.06436341  0.58975841  0.21452700    -0.30900
N175        N  0.04662906  0.57257260  0.24567298     0.13400
C176        C  0.06567720  0.58606209  0.27770020    -0.30800
C177        C  0.11621709  0.71436945  0.21748958    -0.31100
N178        N  0.11004735  0.73665666  0.24951094     0.13900
H179        H  0.10708729  0.72377702  0.18896699     0.16500
C180        C  0.11792528  0.71372904  0.28075662    -0.31100
H181        H  0.11154522  0.72239189  0.31013760     0.16500
H182        H  0.06044177  0.57407995  0.30619248     0.16500
H183        H  0.21602263  0.59963896  0.18916747     0.16600
H184        H  0.05788743  0.58186589  0.18502145     0.16500
C185        C  0.36268143  0.13065996  0.04087439     0.30400
C186        C  0.36034526  0.13094545  0.46152388     0.30400
C187        C  0.37458948  0.17089809  0.02113937    -0.05800
C188        C  0.39132361  0.10129835  0.02035684    -0.06600
C189        C  0.32179985  0.12202688  0.02218303    -0.06500
C190        C  0.37287028  0.17115322  0.48076720    -0.05800
C191        C  0.38916978  0.10097444  0.48038745    -0.06600
C192        C  0.32022624  0.12324745  0.48215178    -0.06500
C193        C  0.38300406  0.20956026  0.46897657    -0.31900
N194        N  0.39185956  0.23200398  0.00049493     0.14600
C195        C  0.38771253  0.20862637  0.03231483    -0.31900
H196        H  0.39501115  0.21820768  0.06122775     0.16600
C197        C  0.41708754  0.07390181  0.46715648    -0.30900
N198        N  0.43679403  0.05843869  0.99788845     0.13400
C199        C  0.42183087  0.07517804  0.03045993    -0.30800
C200        C  0.28068299  0.11745819  0.47192024    -0.31100
N201        N  0.25899165  0.11060439  0.00426816     0.13900
H202        H  0.26848989  0.11686640  0.44306150     0.16500
C203        C  0.28372751  0.11345968  0.03520438    -0.31100
H204        H  0.27510455  0.10778319  0.06472266     0.16500
H205        H  0.43273266  0.06891311  0.05916552     0.16500
H206        H  0.38403752  0.22067027  0.43969799     0.16600
H207        H  0.42255361  0.06585440  0.43742203     0.16500
C208        C  0.36431502  0.12934940  0.29111858     0.30400
C209        C  0.36370637  0.13051400  0.21165843     0.30400
C210        C  0.37635658  0.16939101  0.27196090    -0.05800
C211        C  0.39163004  0.09869370  0.27103290    -0.06600
C212        C  0.32325926  0.12176978  0.27147908    -0.06500
C213        C  0.37795422  0.16941652  0.23174543    -0.05800
C214        C  0.39164098  0.09915534  0.23087205    -0.06600
C215        C  0.32341716  0.12202276  0.23130669    -0.06500
C216        C  0.39225401  0.20663100  0.22074377    -0.31900
N217        N  0.39671749  0.22943888  0.25272067     0.14600
C218        C  0.38646201  0.20755656  0.28402494    -0.31900
H219        H  0.38659522  0.21880523  0.31322396     0.16600
C220        C  0.42063860  0.07196348  0.21943325    -0.30900
N221        N  0.43690962  0.05444677  0.25119733     0.13400
C222        C  0.42000174  0.07124562  0.28284811    -0.30800
C223        C  0.28513859  0.11342628  0.21895476    -0.31100
N224        N  0.26146288  0.10890996  0.25032139     0.13900
H225        H  0.27535259  0.10961982  0.18945472     0.16500
C226        C  0.28408591  0.11419906  0.28244064    -0.31100
H227        H  0.27271741  0.11134960  0.31142422     0.16500
H228        H  0.42900488  0.06553306  0.31226624     0.16500
H229        H  0.39898964  0.21661938  0.19183792     0.16600
H230        H  0.43008775  0.06578251  0.19027596     0.16500
Zn231      Zn  0.51763568  0.45442709  0.47045897     1.49700
Zn232      Zn  0.54138954  0.51740829  0.03429408     1.49400
Zn233      Zn  0.48002391  0.54406344  0.47003325     1.49100
Zn234      Zn  0.45127313  0.47897806  0.03095587     1.49500
O235        O  0.49747696  0.49870604  0.00156579    -1.83800
O236        O  0.57628760  0.44329444  0.47981862    -0.74400
O237        O  0.55329626  0.57648820  0.02705851    -0.74200
O238        O  0.48675395  0.53058880  0.41486282    -0.73700
O239        O  0.59314566  0.48726741  0.02486330    -0.74400
O240        O  0.51118716  0.46800123  0.41531635    -0.74000
O241        O  0.51121791  0.59486849  0.48108133    -0.74600
O242        O  0.40072904  0.51063385  0.01911195    -0.74000
O243        O  0.52598132  0.50939429  0.08878892    -0.74700
O244        O  0.42145133  0.55622530  0.47719910    -0.74100
O245        O  0.46351339  0.48454201  0.08707492    -0.74600
O246        O  0.43929651  0.42002763  0.02040523    -0.74500
O247        O  0.48697551  0.40308896  0.47938677    -0.74300
C248        C  0.60242934  0.45852925  0.00228070     0.77500
C249        C  0.53935731  0.60339181  0.00465734     0.78000
C250        C  0.49872884  0.49908984  0.39753306     0.76900
C251        C  0.39349902  0.54059152  0.99715900     0.77300
C252        C  0.49441988  0.49664559  0.10550928     0.78500
C253        C  0.45639287  0.39367416  0.99936097     0.77500
Zn254      Zn  0.51295597  0.45134306  0.28388815     1.49700
Zn255      Zn  0.45002351  0.47609971  0.21995642     1.49400
Zn256      Zn  0.47488556  0.54048116  0.28251680     1.49100
Zn257      Zn  0.53930566  0.51406873  0.22066002     1.49500
O258        O  0.49432507  0.49556314  0.25171633    -1.83800
O259        O  0.47998509  0.40161755  0.27642353    -0.74400
O260        O  0.39872921  0.50506329  0.23105072    -0.74200
O261        O  0.48369357  0.52866273  0.33794014    -0.73700
O262        O  0.43838044  0.41781107  0.22901777    -0.74400
O263        O  0.50948578  0.46664820  0.33872821    -0.74000
O264        O  0.41546363  0.54996042  0.27517498    -0.74600
O265        O  0.55194814  0.57293027  0.22994197    -0.74000
O266        O  0.46275563  0.48305211  0.16448914    -0.74700
O267        O  0.50460579  0.59186348  0.27067084    -0.74100
O268        O  0.52497118  0.50830715  0.16531352    -0.74600
O269        O  0.58939002  0.48102053  0.23000811    -0.74500
O270        O  0.57026334  0.43623113  0.27337715    -0.74300
C271        C  0.45194191  0.39240834  0.25308735     0.77500
C272        C  0.38905683  0.53341086  0.25384077     0.78000
C273        C  0.49741626  0.49819949  0.35587801     0.76900
C274        C  0.53495664  0.60025882  0.24991484     0.77300
C275        C  0.49395197  0.49595452  0.14729131     0.78500
C276        C  0.59710730  0.45072283  0.25137535     0.77500
C277        C  0.46288346  0.31960399  0.26282060    -0.19900
C278        C  0.43606726  0.35084018  0.25335422    -0.06500
C279        C  0.39542613  0.34146806  0.24438131     0.14400
C280        C  0.38313675  0.30098413  0.24441778    -0.20000
C281        C  0.41027473  0.27019773  0.25337600    -0.06500
C282        C  0.45039741  0.27934377  0.26275176     0.14400
C283        C  0.48004775  0.24641654  0.27191852    -0.23300
H284        H  0.49398497  0.32662489  0.26961312     0.15600
H285        H  0.35227754  0.29308361  0.23755428     0.15700
C286        C  0.36457840  0.37365482  0.23593894    -0.23300
H287        H  0.51059754  0.25867882  0.27776132     0.05900
H288        H  0.48212017  0.22519273  0.24730276     0.09100
H289        H  0.47006626  0.22972916  0.29779697     0.09100
H290        H  0.37223408  0.38962551  0.20886391     0.09100
H291        H  0.36342912  0.39551985  0.26011058     0.09100
H292        H  0.33395160  0.36066495  0.23226588     0.05900
C293        C  0.34105771  0.10028827  0.35515591    -0.19900
C294        C  0.36635898  0.12729845  0.33539555    -0.06500
C295        C  0.39721369  0.14575941  0.35774122     0.14400
C296        C  0.39267509  0.14833427  0.39782501    -0.20000
C297        C  0.36159627  0.12800147  0.41733118    -0.06500
C298        C  0.34046094  0.09823974  0.39557547     0.14400
C299        C  0.32148934  0.06091126  0.41271049    -0.23300
H300        H  0.32427611  0.07793976  0.33908311     0.15600
H301        H  0.41593301  0.16351696  0.41421026     0.15700
C302        C  0.43744536  0.15865751  0.34188985    -0.23300
H303        H  0.28861794  0.06062338  0.40687586     0.05900
H304        H  0.33482232  0.03377644  0.39901232     0.09100
H305        H  0.32710516  0.05744660  0.44386764     0.09100
H306        H  0.44235488  0.19118764  0.34775270     0.09100
H307        H  0.44102162  0.15259285  0.31082922     0.09100
H308        H  0.46160937  0.14144295  0.35670661     0.05900
C309        C  0.34894882  0.16384048  0.10537191    -0.19900
C310        C  0.36093663  0.12910044  0.08516085    -0.06500
C311        C  0.36213885  0.09258847  0.10678677     0.14400
C312        C  0.36483289  0.09442759  0.14713273    -0.20000
C313        C  0.36058984  0.13094841  0.16736017    -0.06500
C314        C  0.34579253  0.16432479  0.14571509     0.14400
C315        C  0.32217503  0.19881721  0.16279620    -0.23300
H316        H  0.33838210  0.18986393  0.08956244     0.15600
H317        H  0.36664363  0.06637183  0.16294065     0.15700
C318        C  0.35578899  0.05118787  0.08965996    -0.23300
H319        H  0.29227350  0.20044100  0.14850890     0.05900
H320        H  0.33806375  0.22781479  0.15765484     0.09100
H321        H  0.31601976  0.19526785  0.19383605     0.09100
H322        H  0.38288761  0.03224056  0.09436534     0.09100
H323        H  0.34804892  0.05167744  0.05874192     0.09100
H324        H  0.32993077  0.03641249  0.10423187     0.05900
C325        C  0.44204975  0.28072219  0.47879236    -0.19900
C326        C  0.40713141  0.27256619  0.99979494    -0.06500
C327        C  0.38759356  0.30415042  0.01937911     0.14400
C328        C  0.40429765  0.34310385  0.01847339    -0.20000
C329        C  0.44012501  0.35153129  0.99824852    -0.06500
C330        C  0.45900654  0.31954396  0.47770358     0.14400
C331        C  0.49708548  0.32522094  0.45469182    -0.23300
H332        H  0.45640989  0.25611839  0.46358098     0.15600
H333        H  0.38903503  0.36710789  0.03371983     0.15700
C334        C  0.34838999  0.29711052  0.04007822    -0.23300
H335        H  0.50718911  0.29665418  0.44109110     0.05900
H336        H  0.52183793  0.33572806  0.97374795     0.09100
H337        H  0.49187723  0.34729321  0.43116733     0.09100
H338        H  0.35286507  0.27609580  0.06453181     0.09100
H339        H  0.32590044  0.28416472  0.51985288     0.09100
H340        H  0.33587716  0.32560558  0.05184277     0.05900
C341        C  0.29104813  0.58827223  0.27861817    -0.19900
C342        C  0.26470208  0.57180692  0.25120578    -0.06500
C343        C  0.27872478  0.54133004  0.22627066     0.14400
C344        C  0.31920367  0.52962898  0.22819127    -0.20000
C345        C  0.34625702  0.54698947  0.25477567    -0.06500
C346        C  0.33141151  0.57610300  0.28116996     0.14400
C347        C  0.35712883  0.59436075  0.31251038    -0.23300
H348        H  0.27988762  0.61125148  0.29800835     0.15600
H349        H  0.32967105  0.50663676  0.20845968     0.15700
C350        C  0.25099000  0.51967488  0.19872485    -0.23300
H351        H  0.33968754  0.61526700  0.33105722     0.05900
H352        H  0.38217736  0.61200384  0.29970547     0.09100
H353        H  0.36921942  0.57014167  0.33135779     0.09100
H354        H  0.24183560  0.53989811  0.17492313     0.09100
H355        H  0.22394005  0.50860331  0.21422817     0.09100
H356        H  0.26590674  0.49318046  0.18538664     0.05900
C357        C  0.16378201  0.64802461  0.39388569    -0.19900
C358        C  0.12932486  0.63550275  0.41431194    -0.06500
C359        C  0.09284489  0.63285262  0.39294983     0.14400
C360        C  0.09423689  0.63294819  0.35253563    -0.20000
C361        C  0.13047704  0.63764078  0.33203741    -0.06500
C362        C  0.16459069  0.65051793  0.35358722     0.14400
C363        C  0.20160127  0.66977588  0.33617400    -0.23300
H364        H  0.18997301  0.65868367  0.40933243     0.15600
H365        H  0.06595147  0.63235611  0.33722450     0.15700
C366        C  0.05142893  0.63292104  0.41079044    -0.23300
H367        H  0.20578882  0.70033156  0.34869451     0.05900
H368        H  0.20003266  0.67385854  0.30470523     0.09100
H369        H  0.22858754  0.65142491  0.34316266     0.09100
H370        H  0.03405838  0.65892250  0.39933411     0.09100
H371        H  0.05150854  0.63609170  0.44238364     0.09100
H372        H  0.03525351  0.60472211  0.40302287     0.05900
C373        C  0.13416825  0.59724496  0.10284490    -0.19900
C374        C  0.13772182  0.63348340  0.08204136    -0.06500
C375        C  0.15085895  0.66778632  0.10317105     0.14400
C376        C  0.14828389  0.66746959  0.14352757    -0.20000
C377        C  0.13609634  0.63300233  0.16429584    -0.06500
C378        C  0.13368859  0.59619314  0.14323403     0.14400
C379        C  0.13314705  0.55468703  0.16128463    -0.23300
H380        H  0.13424715  0.56882276  0.08770463     0.15600
H381        H  0.15905176  0.69377821  0.15866363     0.15700
C382        C  0.17115415  0.70400569  0.08524275    -0.23300
H383        H  0.15973711  0.53742163  0.15117692     0.05900
H384        H  0.10554493  0.53827947  0.15220203     0.09100
H385        H  0.13437953  0.55468651  0.19298310     0.09100
H386        H  0.15340309  0.73167271  0.09115814     0.09100
H387        H  0.17588774  0.70120055  0.05391877     0.09100
H388        H  0.20147184  0.70787481  0.09827105     0.05900
C389        C  0.30226367  0.60828550  0.47712033    -0.19900
C390        C  0.27198786  0.58711315  0.49642138    -0.06500
C391        C  0.28085204  0.54976873  0.01375991     0.14400
C392        C  0.32056860  0.53544064  0.01318499    -0.20000
C393        C  0.35175587  0.55722054  0.99509722    -0.06500
C394        C  0.34199612  0.59397880  0.47594850     0.14400
C395        C  0.37267198  0.61881200  0.45435923    -0.23300
H396        H  0.29457343  0.63654573  0.46320208     0.15600
H397        H  0.32711705  0.50683098  0.02693481     0.15700
C398        C  0.24816869  0.52433408  0.03152919    -0.23300
H399        H  0.35921213  0.64649973  0.44171506     0.05900
H400        H  0.38527705  0.60093582  0.43022373     0.09100
H401        H  0.39709979  0.62855784  0.47413869     0.09100
H402        H  0.22411364  0.51856554  0.00996849     0.09100
H403        H  0.23509688  0.53988426  0.05678782     0.09100
H404        H  0.25985432  0.49472065  0.04149623     0.05900
C405        C  0.15043386  0.09754273  0.26494708    -0.19900
C406        C  0.14361894  0.05904803  0.24902384    -0.06500
C407        C  0.17658993  0.03755833  0.23297118     0.14400
C408        C  0.21490488  0.05516610  0.23349404    -0.20000
C409        C  0.22137154  0.09320586  0.24968402    -0.06500
C410        C  0.18895543  0.11486029  0.26537541     0.14400
C411        C  0.19487221  0.15663230  0.28146049    -0.23300
H412        H  0.12548059  0.11440671  0.27687857     0.15600
H413        H  0.24038300  0.03899684  0.22172301     0.15700
C414        C  0.17251132  0.99576742  0.21610698    -0.23300
H415        H  0.16595185  0.17014262  0.29091053     0.05900
H416        H  0.20812457  0.17654134  0.25909453     0.09100
H417        H  0.21524948  0.15562301  0.30674398     0.09100
H418        H  0.15303944  0.99658953  0.19013487     0.09100
H419        H  0.15966789  0.97491202  0.23787738     0.09100
H420        H  0.20203291  0.98325762  0.20709156     0.05900
C421        C  0.03765243  0.82237858  0.25891008    -0.19900
C422        C  0.06224067  0.85553943  0.24939420    -0.06500
C423        C  0.10337663  0.84867681  0.24022230     0.14400
C424        C  0.11832377  0.80907720  0.24062154    -0.20000
C425        C  0.09353250  0.77645605  0.25005584    -0.06500
C426        C  0.05285447  0.78293772  0.25917285     0.14400
C427        C  0.02546280  0.74799239  0.26829353    -0.23300
H428        H  0.00619878  0.82721762  0.26568659     0.15600
H429        H  0.14957939  0.80330732  0.23369930     0.15700
C430        C  0.13217442  0.88258918  0.23105943    -0.23300
H431        H  0.99410518  0.75809908  0.27363922     0.05900
H432        H  0.03628560  0.73212356  0.29445531     0.09100
H433        H  0.02504154  0.72652227  0.24377276     0.09100
H434        H  0.13252334  0.90470806  0.25503417     0.09100
H435        H  0.12315371  0.89772431  0.20390128     0.09100
H436        H  0.16344975  0.87151283  0.22710707     0.05900
C437        C  0.14920257  0.09392737  0.02279671    -0.19900
C438        C  0.14230005  0.05770622  0.00245348    -0.06500
C439        C  0.17513779  0.03915853  0.48308965     0.14400
C440        C  0.21305800  0.05753961  0.48440290    -0.20000
C441        C  0.21945816  0.09347839  0.00452014    -0.06500
C442        C  0.18741585  0.11193594  0.02407609     0.14400
C443        C  0.19327172  0.15118919  0.04518399    -0.23300
H444        H  0.12458073  0.10856159  0.03761867     0.15600
H445        H  0.23831671  0.04371815  0.46980479     0.15700
C446        C  0.17137064  0.00003699  0.46110872    -0.23300
H447        H  0.16455555  0.16254859  0.05736868     0.05900
H448        H  0.20519753  0.17440065  0.52515174     0.09100
H449        H  0.21471983  0.14706760  0.06935132     0.09100
H450        H  0.15029783  0.00382836  0.43654971     0.09100
H451        H  0.16067450  0.97567573  0.98052791     0.09100
H452        H  0.20065826  0.99013477  0.44897984     0.05900
C453        C  0.02695458  0.82083478  0.51336535    -0.19900
C454        C  0.05344934  0.85103848  0.00010389    -0.06500
C455        C  0.09178664  0.83947880  0.98578686     0.14400
C456        C  0.10211090  0.79839450  0.98507253    -0.20000
C457        C  0.07553166  0.76875254  0.49848029    -0.06500
C458        C  0.03754119  0.77993236  0.51260136     0.14400
C459        C  0.00777587  0.74851438  0.52571881    -0.23300
H460        H  0.99741798  0.82911463  0.52391855     0.15600
H461        H  0.13134303  0.78913910  0.97449163     0.15700
C462        C  0.12250198  0.86982340  0.97210749    -0.23300
H463        H  0.97870981  0.76225841  0.53443365     0.05900
H464        H  0.01994566  0.73182662  0.05083419     0.09100
H465        H  0.00171788  0.72696607  0.50193615    -0.00900
H466        H  0.12895451  0.89196850  0.99528948     0.09100
H467        H  0.11122423  0.88567379  0.44611336     0.09100
H468        H  0.15139653  0.85519479  0.96418982     0.05900
C469        C  0.49544039  0.95919622  0.26872643    -0.19900
C470        C  0.52924749  0.96566057  0.24545805    -0.06500
C471        C  0.53273752  0.00211445  0.22453653     0.14400
C472        C  0.50210841  0.03106487  0.22743730    -0.20000
C473        C  0.46827534  0.02459459  0.25076809    -0.06500
C474        C  0.46475788  0.98802852  0.27150982     0.14400
C475        C  0.42811537  0.97830498  0.29528494    -0.23300
H476        H  0.49304635  0.93115500  0.28457705     0.15600
H477        H  0.50454531  0.05911250  0.21160171     0.15700
C478        C  0.56920232  0.01143869  0.20035239    -0.23300
H479        H  0.42881798  0.94676172  0.30610510     0.05900
H480        H  0.40047580  0.98192485  0.27760289     0.09100
H481        H  0.42665899  0.99824690  0.32079325     0.09100
H482        H  0.57054390  0.99093682  0.17522809     0.09100
H483        H  0.59697403  0.00818228  0.21790896     0.09100
H484        H  0.56835306  0.04276014  0.18896574     0.05900
C485        C  0.58897183  0.64877913  0.23128552    -0.19900
C486        C  0.55128640  0.64231609  0.24888276    -0.06500
C487        C  0.53066629  0.67609501  0.26471580     0.14400
C488        C  0.54830777  0.71457702  0.26239262    -0.20000
C489        C  0.58563356  0.72053716  0.24470719    -0.06500
C490        C  0.60631204  0.68736082  0.22913510     0.14400
C491        C  0.64721042  0.69256091  0.21130339    -0.23300
H492        H  0.60535086  0.62345042  0.21936614     0.15600
H493        H  0.53298931  0.74048301  0.27449392     0.15700
C494        C  0.49010823  0.67256783  0.28392475    -0.23300
H495        H  0.66027789  0.66322766  0.20227444     0.05900
H496        H  0.66808907  0.70674578  0.23232852     0.09100
H497        H  0.64477392  0.71192357  0.18544638     0.09100
H498        H  0.49249261  0.65334095  0.30999057     0.09100
H499        H  0.46780051  0.65960455  0.26353623     0.09100
H500        H  0.47847746  0.70239003  0.29331532     0.05900
C501        C  0.84551296  0.90543839  0.27228036    -0.19900
C502        C  0.85351057  0.94046580  0.25051582    -0.06500
C503        C  0.82145631  0.95789483  0.22890712     0.14400
C504        C  0.78313684  0.94002143  0.23003258    -0.20000
C505        C  0.77549972  0.90522655  0.25170591    -0.06500
C506        C  0.80713214  0.88754618  0.27298932     0.14400
C507        C  0.80116473  0.84883818  0.29503906    -0.23300
H508        H  0.86955912  0.89149807  0.28867151     0.15600
H509        H  0.75860653  0.95330252  0.21381809     0.15700
C510        C  0.82663884  0.99509824  0.20429886    -0.23300
H511        H  0.82998045  0.83733045  0.30701944     0.05900
H512        H  0.78858673  0.82529416  0.27571596     0.09100
H513        H  0.78056668  0.85369465  0.31960372     0.09100
H514        H  0.84894656  0.98921524  0.18123780     0.09100
H515        H  0.83650760  0.02093798  0.22233978     0.09100
H516        H  0.79809752  0.00408410  0.18996628     0.05900
C517        C  0.53133176  0.00101155  0.47768680    -0.19900
C518        C  0.52264325  0.96404143  0.99550015    -0.06500
C519        C  0.48489855  0.95803106  0.01317733     0.14400
C520        C  0.45714634  0.98982231  0.01375527    -0.20000
C521        C  0.46612626  0.02694970  0.99649032    -0.06500
C522        C  0.50343274  0.03266697  0.47798373     0.14400
C523        C  0.51429276  0.07250750  0.45986739    -0.23300
H524        H  0.56043473  0.00520684  0.46418669     0.15600
H525        H  0.42805609  0.98576166  0.02734344     0.15700
C526        C  0.47334895  0.91779764  0.03006278    -0.23300
H527        H  0.54550656  0.07236519  0.44845006     0.05900
H528        H  0.51204851  0.09693355  0.48160786     0.09100
H529        H  0.49370859  0.07915663  0.43553049     0.09100
H530        H  0.49286460  0.91048823  0.05498288     0.09100
H531        H  0.47638253  0.89390432  0.00787560     0.09100
H532        H  0.44169614  0.91771717  0.04033262     0.05900
C533        C  0.64935341  0.89414466  0.34992331    -0.19900
C534        C  0.62852080  0.86317465  0.33061685    -0.06500
C535        C  0.59875158  0.84271586  0.35273946     0.14400
C536        C  0.60191200  0.84271636  0.39315585    -0.20000
C537        C  0.62997468  0.86726285  0.41263540    -0.06500
C538        C  0.64809806  0.89822916  0.39014472     0.14400
C539        C  0.66211589  0.93813227  0.40613117    -0.23300
H540        H  0.66426505  0.91742972  0.33334243     0.15600
H541        H  0.57941123  0.82651428  0.40947648     0.15700
C542        C  0.56001506  0.82634630  0.33615626    -0.23300
H543        H  0.64501879  0.96282586  0.39196433     0.05900
H544        H  0.69448988  0.94246917  0.39957961     0.09100
H545        H  0.65693566  0.94155530  0.43734296     0.09100
H546        H  0.55745812  0.79348649  0.34189966     0.09100
H547        H  0.55652841  0.83243312  0.30505520     0.09100
H548        H  0.53421195  0.84150014  0.35036222     0.05900
C549        C  0.65221691  0.83320746  0.09979902    -0.19900
C550        C  0.63746720  0.86770241  0.08071788    -0.06500
C551        C  0.63482676  0.90343302  0.10326313     0.14400
C552        C  0.63402373  0.90026378  0.14363515    -0.20000
C553        C  0.63992499  0.86320559  0.16277495    -0.06500
C554        C  0.65577972  0.83134220  0.14007731     0.14400
C555        C  0.68024396  0.79696409  0.15618120    -0.23300
H556        H  0.66368359  0.80816150  0.08309705     0.15600
H557        H  0.63154872  0.92777035  0.16023843     0.15700
C558        C  0.63711883  0.94554803  0.08685561    -0.23300
H559        H  0.71044953  0.79708956  0.14252675     0.05900
H560        H  0.66539636  0.76788635  0.14923047     0.09100
H561        H  0.68549910  0.79907407  0.18751312     0.09100
H562        H  0.60903037  0.96230155  0.09337732     0.09100
H563        H  0.64292130  0.94626183  0.05557793     0.09100
H564        H  0.66265944  0.96186781  0.10048650     0.05900
C565        C  0.53647062  0.67491946  0.98290438    -0.19900
C566        C  0.55598807  0.64532973  0.00530259    -0.06500
C567        C  0.59073723  0.65671367  0.52679174     0.14400
C568        C  0.60540360  0.69638743  0.52388910    -0.20000
C569        C  0.58659928  0.72504707  0.00038517    -0.06500
C570        C  0.55111519  0.71453231  0.98039304     0.14400
C571        C  0.52758266  0.74534742  0.95771509    -0.23300
H572        H  0.50937789  0.66716926  0.96711854     0.15600
H573        H  0.63206102  0.70526603  0.53983471     0.15700
C574        C  0.61300970  0.62779986  0.55272949    -0.23300
H575        H  0.49864433  0.73279356  0.94697097     0.05900
H576        H  0.54494851  0.75540048  0.43227930     0.09100
H577        H  0.52058646  0.77171784  0.97622447     0.09100
H578        H  0.62458603  0.60195985  0.53573791     0.09100
H579        H  0.59270045  0.61687705  0.07584089     0.09100
H580        H  0.63927009  0.64235013  0.56694189     0.05900
C581        C  0.82283961  0.96235374  0.48768150    -0.19900
C582        C  0.85439673  0.93678004  0.99911353    -0.06500
C583        C  0.84558769  0.89613828  0.00916839     0.14400
C584        C  0.80554532  0.88256299  0.00747473    -0.20000
C585        C  0.77448390  0.90838054  0.99608236    -0.06500
C586        C  0.78301733  0.94870909  0.48644237     0.14400
C587        C  0.74984728  0.97759855  0.47597506    -0.23300
H588        H  0.82920103  0.99352466  0.48036158     0.15600
H589        H  0.79819731  0.85169490  0.01510916     0.15700
C590        C  0.87788518  0.86659135  0.02084323    -0.23300
H591        H  0.76154042  0.00850512  0.47054023     0.05900
H592        H  0.72766594  0.97925877  0.99977266     0.09100
H593        H  0.73454313  0.96716200  0.44949303     0.09100
H594        H  0.89200548  0.87622832  0.04830210     0.09100
H595        H  0.90108597  0.86462199  0.49796298     0.09100
H596        H  0.86547589  0.83580315  0.02541799     0.05900
C597        C  0.95270692  0.51164710  0.22783702    -0.19900
C598        C  0.96088332  0.47681066  0.24942729    -0.06500
C599        C  0.99789476  0.47348531  0.26919014     0.14400
C600        C  0.02582363  0.50518195  0.26683077    -0.20000
C601        C  0.01766619  0.54018879  0.24536679    -0.06500
C602        C  0.98046616  0.54359826  0.22584216     0.14400
C603        C  0.96919272  0.58138664  0.20430556    -0.23300
H604        H  0.92414244  0.51388865  0.21286642     0.15600
H605        H  0.05440397  0.50268111  0.28172216     0.15700
C606        C  0.00865445  0.43609403  0.29162448    -0.23300
H607        H  0.93774656  0.57999927  0.19342875     0.05900
H608        H  0.98910053  0.58553811  0.17908131     0.09100
H609        H  0.97176511  0.60793280  0.22364171     0.09100
H610        H  0.00609926  0.40912561  0.27283086     0.09100
H611        H  0.98841527  0.43264611  0.31671461     0.09100
H612        H  0.03996653  0.43750368  0.30284245     0.05900
C613        C  0.96215977  0.17686684  0.27084812    -0.19900
C614        C  0.94155433  0.14676710  0.24992923    -0.06500
C615        C  0.90661523  0.15802623  0.22861615     0.14400
C616        C  0.89332174  0.19825226  0.22962528    -0.20000
C617        C  0.91369269  0.22763747  0.25100599    -0.06500
C618        C  0.94882466  0.21704852  0.27141934     0.14400
C619        C  0.97325342  0.24844796  0.29245684    -0.23300
H620        H  0.98921225  0.16915253  0.28666022     0.15600
H621        H  0.86665154  0.20706545  0.21370984     0.15700
C622        C  0.88277868  0.12845882  0.20463040    -0.23300
H623        H  0.00144228  0.23557920  0.30451675     0.05900
H624        H  0.95576307  0.26104118  0.31675752     0.09100
H625        H  0.98161936  0.27314831  0.27237483     0.09100
H626        H  0.87126870  0.10361399  0.22304197     0.09100
H627        H  0.90195726  0.11615861  0.18130487     0.09100
H628        H  0.85633714  0.14289215  0.19068694     0.05900
C629        C  0.66911073  0.45481157  0.23251535    -0.19900
C630        C  0.63825549  0.43266889  0.25054095    -0.06500
C631        C  0.64781247  0.39447340  0.26699176     0.14400
C632        C  0.68751328  0.38000875  0.26476856    -0.20000
C633        C  0.71782659  0.40221147  0.24653026    -0.06500
C634        C  0.70864011  0.44026159  0.23051508     0.14400
C635        C  0.74077288  0.46653746  0.21287123    -0.23300
H636        H  0.66252625  0.48416970  0.22028102     0.15600
H637        H  0.69522393  0.35111910  0.27742078     0.15700
C638        C  0.61685730  0.36832811  0.28670502    -0.23300
H639        H  0.72887160  0.49664086  0.20460009     0.05900
H640        H  0.75273962  0.45231168  0.18642997     0.09100
H641        H  0.76561431  0.47125647  0.23383152     0.09100
H642        H  0.59183821  0.36135602  0.26652667     0.09100
H643        H  0.60510071  0.38390742  0.31260098     0.09100
H644        H  0.62980994  0.33915128  0.29644113     0.05900
C645        C  0.04610387  0.48138783  0.98094540    -0.19900
C646        C  0.03836138  0.51722424  0.50112122    -0.06500
C647        C  0.00149546  0.52135082  0.52122330     0.14400
C648        C  0.97373356  0.48941086  0.52081433    -0.20000
C649        C  0.98146484  0.45375400  0.50054370    -0.06500
C650        C  0.01812153  0.44951485  0.98051114     0.14400
C651        C  0.02814970  0.41101280  0.95968942    -0.23300
H652        H  0.07437652  0.47836232  0.96570004     0.15600
H653        H  0.94526890  0.49244775  0.53574530     0.15700
C654        C  0.99010775  0.55989929  0.54147088    -0.23300
H655        H  0.05893120  0.41198753  0.94728336     0.05900
H656        H  0.00667160  0.40594422  0.93571838     0.09100
H657        H  0.02661470  0.38517910  0.98000158     0.09100
H658        H  0.99381537  0.58597652  0.52171208     0.09100
H659        H  0.00878408  0.56427416  0.56755161     0.09100
H660        H  0.95824189  0.55933373  0.55111580     0.05900
C661        C  0.84315953  0.39775758  0.39528264    -0.19900
C662        C  0.86606019  0.36856378  0.41510806    -0.06500
C663        C  0.89555000  0.34785347  0.39301613     0.14400
C664        C  0.89282357  0.34840098  0.35270875    -0.20000
C665        C  0.86308187  0.37055987  0.33298623    -0.06500
C666        C  0.84268829  0.40035993  0.35491376     0.14400
C667        C  0.82388401  0.43779846  0.33786689    -0.23300
H668        H  0.82821248  0.42135351  0.41114184     0.15600
H669        H  0.91623689  0.33336598  0.33667264     0.15700
C670        C  0.93241729  0.32766547  0.40973472    -0.23300
H671        H  0.83834294  0.46486455  0.35075176     0.05900
H672        H  0.79127306  0.43872356  0.34473612     0.09100
H673        H  0.82798933  0.44054969  0.30645571     0.09100
H674        H  0.93455854  0.32940228  0.44136344     0.09100
H675        H  0.95979402  0.34258818  0.39813360     0.09100
H676        H  0.93312171  0.29542207  0.40107957     0.05900
C677        C  0.84745257  0.33167724  0.10349854    -0.19900
C678        C  0.86124015  0.36560518  0.08291032    -0.06500
C679        C  0.86528866  0.40222319  0.10407912     0.14400
C680        C  0.86532700  0.40104552  0.14445348    -0.20000
C681        C  0.85891856  0.36516061  0.16516625    -0.06500
C682        C  0.84402204  0.33167719  0.14380857     0.14400
C683        C  0.82082687  0.29701848  0.16133397    -0.23300
H684        H  0.83572528  0.30589035  0.08813395     0.15600
H685        H  0.86749377  0.42937249  0.15968366     0.15700
C686        C  0.86664808  0.44378573  0.08615119    -0.23300
H687        H  0.83695104  0.26820472  0.15619264     0.05900
H688        H  0.79075984  0.29502380  0.14740402     0.09100
H689        H  0.81517079  0.30043065  0.19245432     0.09100
H690        H  0.86341913  0.44406436  0.05457335     0.09100
H691        H  0.89536082  0.45897375  0.09390617     0.09100
H692        H  0.84137661  0.46209343  0.09759283     0.05900
C693        C  0.89949679  0.15045102  0.97751806    -0.19900
C694        C  0.93616101  0.14439434  0.99728443    -0.06500
C695        C  0.95458256  0.17817135  0.51552834     0.14400
C696        C  0.93565758  0.21600797  0.51392202    -0.20000
C697        C  0.89891496  0.22161470  0.99479696    -0.06500
C698        C  0.88070060  0.18847351  0.97611620     0.14400
C699        C  0.84071140  0.19266190  0.95601508    -0.23300
H700        H  0.88496596  0.12515038  0.96343405     0.15600
H701        H  0.94961753  0.24174840  0.52781669     0.15700
C702        C  0.99421083  0.17537606  0.53666895    -0.23300
H703        H  0.82952092  0.16317446  0.94515307     0.05900
H704        H  0.84353808  0.21313587  0.43094387     0.09100
H705        H  0.81800237  0.20485322  0.97629614     0.09100
H706        H  0.01797234  0.16414128  0.51699047     0.09100
H707        H  0.99121456  0.15502054  0.06186665     0.09100
H708        H  0.00427860  0.20518573  0.54773626     0.05900
C709        C  0.67529776  0.46882900  0.51587800    -0.19900
C710        C  0.64460347  0.44327707  0.00198478    -0.06500
C711        C  0.65513072  0.40419466  0.98844253     0.14400
C712        C  0.69566457  0.39222544  0.98903229    -0.20000
C713        C  0.72581780  0.41788046  0.00288497    -0.06500
C714        C  0.71570778  0.45659792  0.51635746     0.14400
C715        C  0.74782130  0.48539814  0.53001094    -0.23300
H716        H  0.66779931  0.49884094  0.52594105     0.15600
H717        H  0.70412587  0.36257969  0.97869440     0.15700
C718        C  0.62421407  0.37441333  0.97399170    -0.23300
H719        H  0.73501332  0.51514788  0.53810077     0.05900
H720        H  0.77018340  0.49035545  0.50676613     0.09100
H721        H  0.76330787  0.47284058  0.05566480     0.09100
H722        H  0.60981363  0.38599820  0.44736009     0.09100
H723        H  0.60107414  0.36905693  0.99644154     0.09100
H724        H  0.63794520  0.34481026  0.96683118     0.05900
C725        C  0.86371610  0.36388855  0.53866641     0.30400
C726        C  0.86336899  0.36571795  0.95935204     0.30400
C727        C  0.82712221  0.38366900  0.51960216    -0.05800
C728        C  0.89953596  0.38531167  0.51952432    -0.06600
C729        C  0.86497060  0.32229972  0.51820166    -0.06500
C730        C  0.82630354  0.38430436  0.97951614    -0.05800
C731        C  0.89860841  0.38712695  0.97957713    -0.06600
C732        C  0.86380807  0.32319894  0.97785746    -0.06500
C733        C  0.78770031  0.39588769  0.96934492    -0.31900
N734        N  0.76688686  0.40480219  0.50172108     0.14600
C735        C  0.79031945  0.39673689  0.53264597    -0.31900
H736        H  0.78058186  0.39833857  0.56229142     0.16600
C737        C  0.93031934  0.41104069  0.96809818    -0.30900
N738        N  0.95109188  0.42283632  0.99982048     0.13400
C739        C  0.93275745  0.40707216  0.53133051    -0.30800
C740        C  0.87180592  0.28452007  0.96517362    -0.31100
N741        N  0.88024550  0.26087456  0.49604435     0.13900
H742        H  0.87537116  0.27529059  0.93560769     0.16500
C743        C  0.87715852  0.28386429  0.52822446    -0.31100
H744        H  0.88651329  0.27401312  0.55655225     0.16500
H745        H  0.94185765  0.41285955  0.56071573     0.16500
H746        H  0.77464684  0.39616208  0.94081527     0.16600
H747        H  0.93638662  0.42102422  0.93904274     0.16500
C748        C  0.86143765  0.36595506  0.70943555     0.30400
C749        C  0.86084727  0.36758733  0.78876960     0.30400
C750        C  0.87724867  0.32776648  0.72970228    -0.05800
C751        C  0.88805160  0.39851720  0.72877125    -0.06600
C752        C  0.82044493  0.37271037  0.72862886    -0.06500
C753        C  0.87561805  0.32791023  0.76988286    -0.05800
C754        C  0.88714430  0.39935591  0.76885236    -0.06600
C755        C  0.81970885  0.37276814  0.76873807    -0.06500
C756        C  0.88745228  0.28994839  0.78179763    -0.31900
N757        N  0.89901979  0.26839078  0.75060772     0.14600
C758        C  0.89299731  0.29110333  0.71867597    -0.31900
H759        H  0.89955575  0.28144024  0.68965852     0.16600
C760        C  0.91376785  0.42851702  0.78102655    -0.30900
N761        N  0.93182881  0.44464541  0.74963052     0.13400
C762        C  0.91687107  0.42633978  0.71775345    -0.30800
C763        C  0.78043437  0.38044459  0.77931743    -0.31100
N764        N  0.75835473  0.38713803  0.74702186     0.13900
H765        H  0.76895617  0.38293954  0.80828118     0.16500
C766        C  0.78227687  0.38162696  0.71590440    -0.31100
H767        H  0.77288169  0.38494978  0.68624634     0.16500
H768        H  0.92753417  0.43221412  0.68890348     0.16500
H769        H  0.88684542  0.27818934  0.81082304     0.16600
H770        H  0.91944547  0.43733417  0.81049345     0.16500
C771        C  0.63250983  0.86553346  0.95697402     0.30400
C772        C  0.63374045  0.86679160  0.53646223     0.30400
C773        C  0.67286258  0.87682166  0.97605541    -0.05800
C774        C  0.60237842  0.89373834  0.97662174    -0.06600
C775        C  0.62353060  0.82487208  0.97730393    -0.06500
C776        C  0.67299383  0.87810188  0.51616140    -0.05800
C777        C  0.60229746  0.89391934  0.51675294    -0.06600
C778        C  0.62331906  0.82588677  0.51763148    -0.06500
C779        C  0.71103563  0.88885463  0.52784506    -0.31900
N780        N  0.73395302  0.89388775  0.49605234     0.14600
C781        C  0.71147368  0.88584744  0.96437153    -0.31900
H782        H  0.72255950  0.88686420  0.93514391     0.16600
C783        C  0.57077774  0.91810953  0.52791734    -0.30900
N784        N  0.55293553  0.93335437  0.49591649     0.13400
C785        C  0.57196787  0.91873060  0.96443830    -0.30800
C786        C  0.60922555  0.78901766  0.53007779    -0.31100
N787        N  0.60268282  0.76527641  0.49897235     0.13900
H788        H  0.60251501  0.78039676  0.55938930     0.16500
C789        C  0.61244887  0.78627635  0.96679394    -0.31100
H790        H  0.61126912  0.77412909  0.93795506     0.16500
H791        H  0.56413815  0.92578429  0.93493083     0.16500
H792        H  0.72122971  0.89327685  0.55713315     0.16600
H793        H  0.56181448  0.92477830  0.55707184     0.16500
C794        C  0.63590211  0.86136406  0.70701526     0.30400
C795        C  0.63227470  0.86065923  0.78640635     0.30400
C796        C  0.67532568  0.87071129  0.72846613    -0.05800
C797        C  0.60608759  0.89109816  0.72579841    -0.06600
C798        C  0.62232016  0.82128524  0.72569061    -0.06500
C799        C  0.67379822  0.87019139  0.76858792    -0.05800
C800        C  0.60497228  0.89093951  0.76582860    -0.06600
C801        C  0.62223446  0.82042976  0.76598003    -0.06500
C802        C  0.71172252  0.88078418  0.78149623    -0.31900
N803        N  0.73569747  0.88794316  0.75061391     0.14600
C804        C  0.71364673  0.88202789  0.71813160    -0.31900
H805        H  0.72442071  0.88683638  0.68911787     0.16600
C806        C  0.57697497  0.91890975  0.77719769    -0.30900
N807        N  0.56053560  0.93577238  0.74528047     0.13400
C808        C  0.57699079  0.91806935  0.71384448    -0.30800
C809        C  0.61181722  0.78176937  0.77668127    -0.31100
N810        N  0.60288875  0.76027635  0.74463077     0.13900
H811        H  0.61027453  0.76994696  0.80560032     0.16500
C812        C  0.60861809  0.78410224  0.71335633    -0.31100
H813        H  0.60227693  0.77526432  0.68401499     0.16500
H814        H  0.56714267  0.92322690  0.68459963     0.16500
H815        H  0.72075573  0.88506387  0.81108089     0.16600
H816        H  0.56880273  0.92620373  0.80648529     0.16500
Zn817      Zn  0.95332569  0.01661566  0.96842597     1.49700
Zn818      Zn  0.01525700  0.04436083  0.53155306     1.49400
Zn819      Zn  0.97952912  0.95372589  0.53285247     1.49100
Zn820      Zn  0.04267436  0.97876255  0.97017329     1.49500
O821        O  0.99768206  0.99841535  0.50075299    -1.83800
O822        O  0.93883281  0.07535480  0.97679064    -0.74400
O823        O  0.00887231  0.03136609  0.58717878    -0.74200
O824        O  0.92166218  0.94007468  0.52316632    -0.73700
O825        O  0.98319829  0.09473523  0.52038454    -0.74400
O826        O  0.90395017  0.98307651  0.97735714    -0.74000
O827        O  0.98563191  0.96812778  0.58794285    -0.74600
O828        O  0.05486699  0.92001565  0.97924639    -0.74000
O829        O  0.07371229  0.05704921  0.52276367    -0.74700
O830        O  0.01050524  0.90280708  0.52358294    -0.74100
O831        O  0.09252473  0.01047661  0.98106531    -0.74600
O832        O  0.03033393  0.98469234  0.91439992    -0.74500
O833        O  0.96836074  0.01051335  0.91346849    -0.74300
C834        C  0.95377919  0.10276123  0.49820398     0.77500
C835        C  0.99727904  0.99995068  0.60499629     0.78000
C836        C  0.89561931  0.95390740  0.49984611     0.76900
C837        C  0.03931278  0.89362581  0.50122076     0.77300
C838        C  0.10075466  0.04072462  0.50208364     0.78500
C839        C  0.99958572  0.99761129  0.89647595     0.77500
Zn840      Zn  0.95454722  0.01912952  0.71988929     1.49700
Zn841      Zn  0.01809587  0.04455048  0.78281312     1.49400
Zn842      Zn  0.98100325  0.95357486  0.78153470     1.49100
Zn843      Zn  0.04313547  0.98149357  0.71862851     1.49500
O844        O  0.99914978  0.99967718  0.75096361    -1.83800
O845        O  0.94276875  0.07767746  0.72918258    -0.74400
O846        O  0.01224827  0.02958569  0.83797085    -0.74200
O847        O  0.92216070  0.94078339  0.77200594    -0.73700
O848        O  0.98690592  0.09611399  0.77334184    -0.74400
O849        O  0.90415666  0.98751616  0.73003869    -0.74000
O850        O  0.98757349  0.96682658  0.83716032    -0.74600
O851        O  0.05820183  0.92390617  0.72814838    -0.74000
O852        O  0.07659247  0.05697376  0.77340062    -0.74700
O853        O  0.01374148  0.90331419  0.77120456    -0.74100
O854        O  0.09245972  0.01415650  0.72714550    -0.74600
O855        O  0.02873310  0.98663578  0.66354187    -0.74500
O856        O  0.96732721  0.01362760  0.66424019    -0.74300
C857        C  0.95777012  0.10464221  0.75086882     0.77500
C858        C  0.00003323  0.99792275  0.85500117     0.78000
C859        C  0.89539000  0.95723051  0.75086259     0.76900
C860        C  0.04393837  0.89643900  0.74966296     0.77300
C861        C  0.10210913  0.04244273  0.74993260     0.78500
C862        C  0.99780065  0.00016418  0.64643079     0.77500
C863        C  0.13137891  0.63232534  0.95854498     0.30400
C864        C  0.13383363  0.63277315  0.53782764     0.30400
C865        C  0.11416442  0.66973269  0.97848102    -0.05800
C866        C  0.10886240  0.59734009  0.97868666    -0.06600
C867        C  0.17349525  0.62866661  0.97715008    -0.06500
C868        C  0.11413084  0.66955678  0.51849963    -0.05800
C869        C  0.10939485  0.59814388  0.51895957    -0.06600
C870        C  0.17453717  0.62950549  0.51739533    -0.06500
C871        C  0.09672513  0.70525206  0.53003280    -0.31900
N872        N  0.08804788  0.72741915  0.99828050     0.14600
C873        C  0.09867404  0.70616127  0.96662105    -0.31900
H874        H  0.09602462  0.71681342  0.93727126     0.16600
C875        C  0.08311170  0.56856876  0.53120456    -0.30900
N876        N  0.06773580  0.54924444  0.00013645     0.13400
C877        C  0.08395741  0.56583687  0.96793449    -0.30800
C878        C  0.21120472  0.61438112  0.52887900    -0.31100
N879        N  0.23218440  0.60373578  0.99714935     0.13900
H880        H  0.22098096  0.60945942  0.55823285     0.16500
C881        C  0.20920534  0.61099707  0.96572813    -0.31100
H882        H  0.21705860  0.60141919  0.93694982     0.16500
H883        H  0.07661556  0.55676600  0.93886178     0.16500
H884        H  0.09210127  0.71524308  0.55928611     0.16600
H885        H  0.07491930  0.56186124  0.56053448     0.16500
C886        C  0.13038539  0.63490974  0.78776926     0.30400
C887        C  0.13216617  0.63512820  0.70850121     0.30400
C888        C  0.16614155  0.61330080  0.76899599    -0.05800
C889        C  0.09471031  0.61376681  0.76730868    -0.06600
C890        C  0.13074143  0.67650526  0.76840646    -0.06500
C891        C  0.16763624  0.61486367  0.72912595    -0.05800
C892        C  0.09511598  0.61463395  0.72703132    -0.06600
C893        C  0.13110786  0.67698426  0.72807411    -0.06500
C894        C  0.20399908  0.59906969  0.71803687    -0.31900
N895        N  0.22379468  0.58597110  0.74986645     0.14600
C896        C  0.20071458  0.59424116  0.78110990    -0.31900
H897        H  0.20935378  0.58828357  0.81059412     0.16600
C898        C  0.06435949  0.58975624  0.71452851    -0.30900
N899        N  0.04662566  0.57257064  0.74567489     0.13400
C900        C  0.06567433  0.58606012  0.77770170    -0.30800
C901        C  0.11621449  0.71436650  0.71749055    -0.31100
N902        N  0.11004565  0.73665378  0.74951177     0.13900
H903        H  0.10708384  0.72377426  0.68896781     0.16500
C904        C  0.11792416  0.71372617  0.78075750    -0.31100
H905        H  0.11154528  0.72238910  0.81013833     0.16500
H906        H  0.06043943  0.57407784  0.80619432     0.16500
H907        H  0.21601901  0.59963663  0.68916694     0.16600
H908        H  0.05788296  0.58186346  0.68502304     0.16500
C909        C  0.36267980  0.13066048  0.54087460     0.30400
C910        C  0.36034771  0.13094474  0.96152368     0.30400
C911        C  0.37458699  0.17089886  0.52113955    -0.05800
C912        C  0.39132228  0.10129942  0.52035679    -0.06600
C913        C  0.32179822  0.12202683  0.52218356    -0.06500
C914        C  0.37287311  0.17115231  0.98076710    -0.05800
C915        C  0.38917160  0.10097339  0.98038757    -0.06600
C916        C  0.32022840  0.12324741  0.98215124    -0.06500
C917        C  0.38300698  0.20955941  0.96897624    -0.31900
N918        N  0.39185681  0.23200480  0.50049494     0.14600
C919        C  0.38771004  0.20862712  0.53231503    -0.31900
H920        H  0.39500898  0.21820829  0.56122775     0.16600
C921        C  0.41708929  0.07390050  0.96715678    -0.30900
N922        N  0.43679300  0.05844038  0.49788800     0.13400
C923        C  0.42182995  0.07517967  0.53045939    -0.30800
C924        C  0.28068520  0.11745872  0.97191913    -0.31100
N925        N  0.25899002  0.11060332  0.50426938     0.13900
H926        H  0.26849267  0.11686691  0.94306046     0.16500
C927        C  0.28372622  0.11345891  0.53520547    -0.31100
H928        H  0.27510387  0.10778221  0.56472347     0.16500
H929        H  0.43273229  0.06891471  0.55916558     0.16500
H930        H  0.38404038  0.22066914  0.93969843     0.16600
H931        H  0.42255606  0.06585351  0.93742255     0.16500
C932        C  0.36431616  0.12934855  0.79111874     0.30400
C933        C  0.36370652  0.13051311  0.71165865     0.30400
C934        C  0.37635807  0.16938997  0.77196085    -0.05800
C935        C  0.39163039  0.09869247  0.77103274    -0.06600
C936        C  0.32325999  0.12176939  0.77147981    -0.06500
C937        C  0.37795530  0.16941548  0.73174533    -0.05800
C938        C  0.39164086  0.09915389  0.73087198    -0.06600
C939        C  0.32341739  0.12202264  0.73130744    -0.06500
C940        C  0.39225501  0.20662989  0.72074366    -0.31900
N941        N  0.39671894  0.22943781  0.75272021     0.14600
C942        C  0.38646365  0.20755554  0.78402480    -0.31900
H943        H  0.38659686  0.21880422  0.81322350     0.16600
C944        C  0.42063802  0.07196147  0.71943313    -0.30900
N945        N  0.43690924  0.05444478  0.75119701     0.13400
C946        C  0.42000199  0.07124419  0.78284804    -0.30800
C947        C  0.28513857  0.11342656  0.71895594    -0.31100
N948        N  0.26146318  0.10890971  0.75032291     0.13900
H949        H  0.27535229  0.10962046  0.68945612     0.16500
C950        C  0.28408688  0.11419822  0.78244175    -0.31100
H951        H  0.27271909  0.11134741  0.81142584     0.16500
H952        H  0.42900543  0.06553230  0.81226552     0.16500
H953        H  0.39899022  0.21661856  0.69183703     0.16600
H954        H  0.43008687  0.06578021  0.69027567     0.16500
Zn955      Zn  0.51763650  0.45442732  0.97045881     1.49700
Zn956      Zn  0.54138882  0.51740807  0.53429427     1.49400
Zn957      Zn  0.48002467  0.54406387  0.97003348     1.49100
Zn958      Zn  0.45127207  0.47897841  0.53095606     1.49500
O959        O  0.49747614  0.49870588  0.50156590    -1.83800
O960        O  0.57628829  0.44329463  0.97981860    -0.74400
O961        O  0.55329492  0.57648818  0.52705909    -0.74200
O962        O  0.48675422  0.53058906  0.91486315    -0.73700
O963        O  0.59314531  0.48726757  0.52486292    -0.74400
O964        O  0.51118761  0.46800154  0.91531632    -0.74000
O965        O  0.51121906  0.59486902  0.98108112    -0.74600
O966        O  0.40072817  0.51063504  0.51911285    -0.74000
O967        O  0.52598052  0.50939391  0.58878923    -0.74700
O968        O  0.42145194  0.55622523  0.97719916    -0.74100
O969        O  0.46351246  0.48454201  0.58707512    -0.74600
O970        O  0.43929504  0.42002812  0.52040511    -0.74500
O971        O  0.48697668  0.40308898  0.97938646    -0.74300
C972        C  0.60242889  0.45852935  0.50228030     0.77500
C973        C  0.53935572  0.60339165  0.50465788     0.78000
C974        C  0.49872891  0.49909013  0.89753324     0.76900
C975        C  0.39349846  0.54059263  0.49715970     0.77300
C976        C  0.49441895  0.49664544  0.60550955     0.78500
C977        C  0.45639141  0.39367445  0.49936107     0.77500
Zn978      Zn  0.51295489  0.45134359  0.78388833     1.49700
Zn979      Zn  0.45002219  0.47609966  0.71995685     1.49400
Zn980      Zn  0.47488369  0.54048162  0.78251738     1.49100
Zn981      Zn  0.53930384  0.51406953  0.72066039     1.49500
O982        O  0.49432344  0.49556363  0.75171677    -1.83800
O983        O  0.47998457  0.40161759  0.77642398    -0.74400
O984        O  0.39872793  0.50506347  0.73105081    -0.74200
O985        O  0.48369221  0.52866287  0.83794060    -0.73700
O986        O  0.43837921  0.41781093  0.72901876    -0.74400
O987        O  0.50948526  0.46664866  0.83872830    -0.74000
O988        O  0.41546153  0.54996064  0.77517539    -0.74600
O989        O  0.55194608  0.57293074  0.72994258    -0.74000
O990        O  0.46275465  0.48305163  0.66448943    -0.74700
O991        O  0.50460404  0.59186421  0.77067176    -0.74100
O992        O  0.52496966  0.50830797  0.66531389    -0.74600
O993        O  0.58938856  0.48102211  0.73000824    -0.74500
O994        O  0.57026228  0.43623242  0.77337710    -0.74300
C995        C  0.45194118  0.39240819  0.75308811     0.77500
C996        C  0.38905509  0.53341094  0.75384081     0.78000
C997        C  0.49741560  0.49819979  0.85587826     0.76900
C998        C  0.53495486  0.60025930  0.74991560     0.77300
C999        C  0.49395081  0.49595456  0.64729162     0.78500
C1000       C  0.59710611  0.45072447  0.75137539     0.77500
C1001       C  0.46288376  0.31960381  0.76282073    -0.19900
C1002       C  0.43606701  0.35083976  0.75335486    -0.06500
C1003       C  0.39542604  0.34146715  0.74438207     0.14400
C1004       C  0.38313721  0.30098297  0.74441807    -0.20000
C1005       C  0.41027576  0.27019683  0.75337570    -0.06500
C1006       C  0.45039830  0.27934335  0.76275133     0.14400
C1007       C  0.48004925  0.24641644  0.77191738    -0.23300
H1008       H  0.49398502  0.32662503  0.76961314     0.15600
H1009       H  0.35227827  0.29308215  0.73755478     0.15700
C1010       C  0.36457773  0.37365353  0.73594030    -0.23300
H1011       H  0.51059887  0.25867911  0.77776030     0.05900
H1012       H  0.48212189  0.22519319  0.74730119     0.09100
H1013       H  0.47006813  0.22972834  0.79779553     0.09100
H1014       H  0.37223297  0.38962480  0.70886541     0.09100
H1015       H  0.36342830  0.39551814  0.76011225     0.09100
H1016       H  0.33395114  0.36066325  0.73226730     0.05900
C1017       C  0.34106016  0.10028692  0.85515614    -0.19900
C1018       C  0.36636065  0.12729742  0.83539556    -0.06500
C1019       C  0.39721561  0.14575871  0.85774101     0.14400
C1020       C  0.39267729  0.14833353  0.89782470    -0.20000
C1021       C  0.36159887  0.12800057  0.91733110    -0.06500
C1022       C  0.34046358  0.09823843  0.89557555     0.14400
C1023       C  0.32149214  0.06091010  0.91271097    -0.23300
H1024       H  0.32427830  0.07793772  0.83908310     0.15600
H1025       H  0.41593561  0.16351658  0.91421001     0.15700
C1026       C  0.43744712  0.15865676  0.84188925    -0.23300
H1027       H  0.28862071  0.06062201  0.90687622     0.05900
H1028       H  0.33482533  0.03377517  0.89901310     0.09100
H1029       H  0.32710773  0.05744584  0.94386812     0.09100
H1030       H  0.44235664  0.19118701  0.84775176     0.09100
H1031       H  0.44102323  0.15259172  0.81082871     0.09100
H1032       H  0.46161129  0.14144244  0.85670604     0.05900
C1033       C  0.34894766  0.16384032  0.60537259    -0.19900
C1034       C  0.36093542  0.12910075  0.58516105    -0.06500
C1035       C  0.36213813  0.09258837  0.60678677     0.14400
C1036       C  0.36483246  0.09442722  0.64713261    -0.20000
C1037       C  0.36058942  0.13094765  0.66736044    -0.06500
C1038       C  0.34579174  0.16432439  0.64571564     0.14400
C1039       C  0.32217458  0.19881664  0.66279742    -0.23300
H1040       H  0.33838044  0.18986461  0.58956300     0.15600
H1041       H  0.36664346  0.06637075  0.66294057     0.15700
C1042       C  0.35578856  0.05118793  0.58965952    -0.23300
H1043       H  0.29227277  0.20044044  0.64851065     0.05900
H1044       H  0.33806320  0.22781434  0.65765586     0.09100
H1045       H  0.31601997  0.19526721  0.69383729     0.09100
H1046       H  0.38288741  0.03224086  0.59436458     0.09100
H1047       H  0.34804834  0.05167766  0.55874155     0.09100
H1048       H  0.32993059  0.03641209  0.60423146     0.05900
C1049       C  0.44205220  0.28072175  0.97879233    -0.19900
C1050       C  0.40712902  0.27256683  0.49979511    -0.06500
C1051       C  0.38759157  0.30415114  0.51937939     0.14400
C1052       C  0.40429590  0.34310455  0.51847370    -0.20000
C1053       C  0.44012329  0.35153164  0.49824859    -0.06500
C1054       C  0.45900865  0.31954371  0.97770362     0.14400
C1055       C  0.49708774  0.32522091  0.95469207    -0.23300
H1056       H  0.45641250  0.25611825  0.96358116     0.15600
H1057       H  0.38903380  0.36710831  0.53372002     0.15700
C1058       C  0.34838801  0.29711160  0.54007871    -0.23300
H1059       H  0.50719173  0.29665423  0.94109151     0.05900
H1060       H  0.52183590  0.33572778  0.47374757     0.09100
H1061       H  0.49187945  0.34729305  0.93116745     0.09100
H1062       H  0.35286309  0.27609677  0.56453223     0.09100
H1063       H  0.32590273  0.28416344  0.01985232     0.09100
H1064       H  0.33587556  0.32560664  0.55184340     0.05900
C1065       C  0.29104494  0.58826995  0.77861819    -0.19900
C1066       C  0.26469960  0.57180495  0.75120483    -0.06500
C1067       C  0.27872345  0.54132959  0.72626874     0.14400
C1068       C  0.31920261  0.52962934  0.72818956    -0.20000
C1069       C  0.34625513  0.54698919  0.75477517    -0.06500
C1070       C  0.33140862  0.57610138  0.78117011     0.14400
C1071       C  0.35712497  0.59435847  0.81251163    -0.23300
H1072       H  0.27988391  0.61124782  0.79800870     0.15600
H1073       H  0.32967077  0.50663832  0.70845731     0.15700
C1074       C  0.25098981  0.51967494  0.69872154    -0.23300
H1075       H  0.33968301  0.61526374  0.83105890     0.05900
H1076       H  0.38217340  0.61200244  0.79970770     0.09100
H1077       H  0.36921572  0.57013888  0.83135839     0.09100
H1078       H  0.24183578  0.53989882  0.67492012     0.09100
H1079       H  0.22393967  0.50860242  0.71422381     0.09100
H1080       H  0.26590734  0.49318117  0.68538293     0.05900
C1081       C  0.16378058  0.64802236  0.89388583    -0.19900
C1082       C  0.12932336  0.63550155  0.91431244    -0.06500
C1083       C  0.09284314  0.63285228  0.89295070     0.14400
C1084       C  0.09423488  0.63294665  0.85253645    -0.20000
C1085       C  0.13047508  0.63763803  0.83203794    -0.06500
C1086       C  0.16458908  0.65051498  0.85358736     0.14400
C1087       C  0.20159979  0.66977219  0.83617367    -0.23300
H1088       H  0.18997198  0.65868114  0.90933239     0.15600
H1089       H  0.06594939  0.63235493  0.83722554     0.15700
C1090       C  0.05142739  0.63292323  0.91079172    -0.23300
H1091       H  0.20578768  0.70032803  0.84869368     0.05900
H1092       H  0.20003113  0.67385433  0.80470488     0.09100
H1093       H  0.22858591  0.65142105  0.84316258     0.09100
H1094       H  0.03405776  0.65892473  0.89933433     0.09100
H1095       H  0.05150759  0.63609580  0.94238481     0.09100
H1096       H  0.03525077  0.60472451  0.90302572     0.05900
C1097       C  0.13416553  0.59724354  0.60284454    -0.19900
C1098       C  0.13771930  0.63348236  0.58204131    -0.06500
C1099       C  0.15085476  0.66778540  0.60317166     0.14400
C1100       C  0.14827986  0.66746770  0.64352817    -0.20000
C1101       C  0.13609252  0.63300012  0.66429610    -0.06500
C1102       C  0.13368476  0.59619136  0.64323382     0.14400
C1103       C  0.13314224  0.55468498  0.66128392    -0.23300
H1104       H  0.13424544  0.56882192  0.58770445     0.15600
H1105       H  0.15904770  0.69377629  0.65866458     0.15700
C1106       C  0.17114757  0.70400644  0.58524403    -0.23300
H1107       H  0.15973213  0.53741926  0.65117651     0.05900
H1108       H  0.10554006  0.53827806  0.65220074     0.09100
H1109       H  0.13437419  0.55468405  0.69298258     0.09100
H1110       H  0.15339479  0.73167214  0.59116035     0.09100
H1111       H  0.17588080  0.70120267  0.55391996     0.09100
H1112       H  0.20146523  0.70787709  0.59827209     0.05900
C1113       C  0.30226210  0.60828058  0.97711650    -0.19900
C1114       C  0.27198710  0.58710858  0.99641911    -0.06500
C1115       C  0.28085165  0.54977212  0.51376057     0.14400
C1116       C  0.32056777  0.53544300  0.51318517    -0.20000
C1117       C  0.35175578  0.55722287  0.49509866    -0.06500
C1118       C  0.34199496  0.59397489  0.97594504     0.14400
C1119       C  0.37266980  0.61880746  0.95435380    -0.23300
H1120       H  0.29457097  0.63653983  0.96319696     0.15600
H1121       H  0.32711542  0.50683205  0.52693373     0.15700
C1122       C  0.24816741  0.52433763  0.53152848    -0.23300
H1123       H  0.35920886  0.64649368  0.94170772     0.05900
H1124       H  0.38527536  0.60092979  0.93021952     0.09100
H1125       H  0.39709737  0.62855578  0.97413242     0.09100
H1126       H  0.22411245  0.51857082  0.50996737     0.09100
H1127       H  0.23509578  0.53988701  0.55678767     0.09100
H1128       H  0.25985211  0.49472332  0.54149431     0.05900
C1129       C  0.15043494  0.09753846  0.76495368    -0.19900
C1130       C  0.14361891  0.05904741  0.74902260    -0.06500
C1131       C  0.17658876  0.03756197  0.73296282     0.14400
C1132       C  0.21490385  0.05516962  0.73348732    -0.20000
C1133       C  0.22137167  0.09320554  0.74968544    -0.06500
C1134       C  0.18895651  0.11485613  0.76538333     0.14400
C1135       C  0.19487352  0.15662475  0.78147644    -0.23300
H1136       H  0.12548279  0.11439947  0.77689041     0.15600
H1137       H  0.24038061  0.03900355  0.72171115     0.15700
C1138       C  0.17250932  0.99577574  0.71608813    -0.23300
H1139       H  0.16595329  0.17013303  0.79092964     0.05900
H1140       H  0.20812538  0.17653862  0.75911412     0.09100
H1141       H  0.21525100  0.15561026  0.80675946     0.09100
H1142       H  0.15303466  0.99660499  0.69011811     0.09100
H1143       H  0.15966868  0.97491374  0.73785431     0.09100
H1144       H  0.20203016  0.98326905  0.70706654     0.05900
C1145       C  0.03765420  0.82237794  0.75891551    -0.19900
C1146       C  0.06224130  0.85553748  0.74939265    -0.06500
C1147       C  0.10337544  0.84867310  0.74021430     0.14400
C1148       C  0.11832184  0.80907323  0.74061486    -0.20000
C1149       C  0.09353179  0.77645356  0.75005671    -0.06500
C1150       C  0.05285551  0.78293687  0.75917963     0.14400
C1151       C  0.02546453  0.74799306  0.76830755    -0.23300
H1152       H  0.00620179  0.82721810  0.76569667     0.15600
H1153       H  0.14957602  0.80330196  0.73368767     0.15700
C1154       C  0.13217220  0.88258372  0.73104258    -0.23300
H1155       H  0.99410792  0.75810094  0.77365637     0.05900
H1156       H  0.03629069  0.73212695  0.79446959     0.09100
H1157       H  0.02503921  0.72652020  0.74378901     0.09100
H1158       H  0.13252681  0.90470524  0.75501505     0.09100
H1159       H  0.12314615  0.89771606  0.70388461     0.09100
H1160       H  0.16344641  0.87150611  0.72708533     0.05900
C1161       C  0.14920135  0.09392489  0.52279843    -0.19900
C1162       C  0.14229922  0.05770365  0.50245523    -0.06500
C1163       C  0.17513831  0.03916108  0.98308745     0.14400
C1164       C  0.21305878  0.05754173  0.98440075    -0.20000
C1165       C  0.21945693  0.09347654  0.50452193    -0.06500
C1166       C  0.18741443  0.11193377  0.52407794     0.14400
C1167       C  0.19326997  0.15118695  0.54518606    -0.23300
H1168       H  0.12457931  0.10855899  0.53762028     0.15600
H1169       H  0.23831714  0.04372016  0.96980258     0.15700
C1170       C  0.17137073  0.00003991  0.96110596    -0.23300
H1171       H  0.16455368  0.16254608  0.55737083     0.05900
H1172       H  0.20519952  0.17440274  0.02514951     0.09100
H1173       H  0.21471818  0.14706540  0.56935338     0.09100
H1174       H  0.15029760  0.00383181  0.93654730     0.09100
H1175       H  0.16067425  0.97567310  0.48053092     0.09100
H1176       H  0.20065813  0.99013774  0.94897651     0.05900
C1177       C  0.02695878  0.82083654  0.01336594    -0.19900
C1178       C  0.05344579  0.85103605  0.50010309    -0.06500
C1179       C  0.09178267  0.83947533  0.48578571     0.14400
C1180       C  0.10210593  0.79839083  0.48507170    -0.20000
C1181       C  0.07553719  0.76875550  0.99848078    -0.06500
C1182       C  0.03754649  0.77993439  0.01260189     0.14400
C1183       C  0.00778196  0.74851571  0.02571953    -0.23300
H1184       H  0.99742213  0.82911557  0.02391898     0.15600
H1185       H  0.13133788  0.78913464  0.47449063     0.15700
C1186       C  0.12249846  0.86981904  0.47210550    -0.23300
H1187       H  0.97871545  0.76225898  0.03443430     0.05900
H1188       H  0.01993911  0.73182484  0.55083339     0.09100
H1189       H  0.00172462  0.72696716  0.00193701    -0.00900
H1190       H  0.12895200  0.89196406  0.49528718     0.09100
H1191       H  0.11122792  0.88567800  0.94611528     0.09100
H1192       H  0.15139252  0.85518964  0.46418740     0.05900
C1193       C  0.49544101  0.95919494  0.76872810    -0.19900
C1194       C  0.52924706  0.96565827  0.74545788    -0.06500
C1195       C  0.53273594  0.00211093  0.72453461     0.14400
C1196       C  0.50210690  0.03106163  0.72743538    -0.20000
C1197       C  0.46827487  0.02459235  0.75076800    -0.06500
C1198       C  0.46475852  0.98802745  0.77151146     0.14400
C1199       C  0.42811727  0.97830479  0.79528872    -0.23300
H1200       H  0.49304784  0.93115498  0.78457989     0.15600
H1201       H  0.50454298  0.05910790  0.71159880     0.15700
C1202       C  0.56919942  0.01143428  0.70034829    -0.23300
H1203       H  0.42882028  0.94676187  0.80610968     0.05900
H1204       H  0.40047677  0.98192427  0.77760795     0.09100
H1205       H  0.42666244  0.99824743  0.82079661     0.09100
H1206       H  0.57053932  0.99093179  0.67522430     0.09100
H1207       H  0.59697220  0.00817816  0.71790347     0.09100
H1208       H  0.56834973  0.04275529  0.68896096     0.05900
C1209       C  0.58897380  0.64877760  0.73129195    -0.19900
C1210       C  0.55128530  0.64231615  0.74888359    -0.06500
C1211       C  0.53066254  0.67609634  0.76471107     0.14400
C1212       C  0.54830478  0.71457801  0.76238829    -0.20000
C1213       C  0.58563371  0.72053640  0.74470852    -0.06500
C1214       C  0.60631472  0.68735887  0.72914179     0.14400
C1215       C  0.64721619  0.69255788  0.71131623    -0.23300
H1216       H  0.60535496  0.62344753  0.71937683     0.15600
H1217       H  0.53298442  0.74048516  0.77448544     0.15700
C1218       C  0.49010072  0.67257071  0.78391300    -0.23300
H1219       H  0.66028452  0.66322414  0.70228961     0.05900
H1220       H  0.66809160  0.70674257  0.73234442     0.09100
H1221       H  0.64478461  0.71192052  0.68545880     0.09100
H1222       H  0.49248011  0.65334646  0.80998098     0.09100
H1223       H  0.46779706  0.65960512  0.76352163     0.09100
H1224       H  0.47846796  0.70239371  0.79329876     0.05900
C1225       C  0.84551439  0.90543430  0.77227981    -0.19900
C1226       C  0.85351188  0.94046192  0.75051543    -0.06500
C1227       C  0.82145771  0.95789096  0.72890689     0.14400
C1228       C  0.78313814  0.94001760  0.73003221    -0.20000
C1229       C  0.77550118  0.90522261  0.75170556    -0.06500
C1230       C  0.80713347  0.88754217  0.77298884     0.14400
C1231       C  0.80116595  0.84883434  0.79503876    -0.23300
H1232       H  0.86956046  0.89149401  0.78867078     0.15600
H1233       H  0.75860840  0.95329848  0.71381826     0.15700
C1234       C  0.82663989  0.99509461  0.70429878    -0.23300
H1235       H  0.82998166  0.83732657  0.80701924     0.05900
H1236       H  0.78858787  0.82529031  0.77571578     0.09100
H1237       H  0.78056785  0.85369102  0.81960335     0.09100
H1238       H  0.84894765  0.98921186  0.68123771     0.09100
H1239       H  0.83650852  0.02093434  0.72233987     0.09100
H1240       H  0.79809859  0.00408038  0.68996624     0.05900
C1241       C  0.53133392  0.00101110  0.97768968    -0.19900
C1242       C  0.52264296  0.96404350  0.49550116    -0.06500
C1243       C  0.48489972  0.95803453  0.51318156     0.14400
C1244       C  0.45714715  0.98982562  0.51375873    -0.20000
C1245       C  0.46612542  0.02695146  0.49648973    -0.06500
C1246       C  0.50343514  0.03266671  0.97798749     0.14400
C1247       C  0.51429669  0.07250894  0.95987538    -0.23300
H1248       H  0.56043796  0.00520738  0.96419211     0.15600
H1249       H  0.42805863  0.98576612  0.52734915     0.15700
C1250       C  0.47335125  0.91780267  0.53007125    -0.23300
H1251       H  0.54551106  0.07236740  0.94845967     0.05900
H1252       H  0.51205152  0.09693282  0.98161802     0.09100
H1253       H  0.49371380  0.07916082  0.93553808     0.09100
H1254       H  0.49286781  0.91049605  0.55499144     0.09100
H1255       H  0.47638418  0.89390702  0.50788619     0.09100
H1256       H  0.44169895  0.91772285  0.54034225     0.05900
C1257       C  0.64935506  0.89414394  0.84992307    -0.19900
C1258       C  0.62852215  0.86317381  0.83061706    -0.06500
C1259       C  0.59875308  0.84271515  0.85274003     0.14400
C1260       C  0.60191397  0.84271604  0.89315625    -0.20000
C1261       C  0.62997683  0.86726247  0.91263542    -0.06500
C1262       C  0.64809995  0.89822875  0.89014445     0.14400
C1263       C  0.66211736  0.93813224  0.90613047    -0.23300
H1264       H  0.66426653  0.91742867  0.83334201     0.15600
H1265       H  0.57941295  0.82651373  0.90947755     0.15700
C1266       C  0.56001650  0.82634545  0.83615718    -0.23300
H1267       H  0.64502007  0.96282540  0.89196329     0.05900
H1268       H  0.69449140  0.94246951  0.89957904     0.09100
H1269       H  0.65693671  0.94155565  0.93734215     0.09100
H1270       H  0.55745972  0.79348573  0.84190091     0.09100
H1271       H  0.55652949  0.83243198  0.80505608     0.09100
H1272       H  0.53421351  0.84149932  0.85036331     0.05900
C1273       C  0.65221568  0.83320663  0.59979880    -0.19900
C1274       C  0.63746653  0.86770197  0.58071803    -0.06500
C1275       C  0.63482694  0.90343244  0.60326375     0.14400
C1276       C  0.63402417  0.90026272  0.64363574    -0.20000
C1277       C  0.63992499  0.86320422  0.66277511    -0.06500
C1278       C  0.65577881  0.83134065  0.64007696     0.14400
C1279       C  0.68024233  0.79696187  0.65618045    -0.23300
H1280       H  0.66368192  0.80816009  0.58309609     0.15600
H1281       H  0.63154956  0.92776913  0.66023935     0.15700
C1282       C  0.63711987  0.94554761  0.58685670    -0.23300
H1283       H  0.71044750  0.79708637  0.64252526     0.05900
H1284       H  0.66539364  0.76788447  0.64923025     0.09100
H1285       H  0.68549847  0.79907192  0.68751225     0.09100
H1286       H  0.60903187  0.96230177  0.59337877     0.09100
H1287       H  0.64292221  0.94626163  0.55557900     0.09100
H1288       H  0.66266095  0.96186665  0.60048762     0.05900
C1289       C  0.53646786  0.67491916  0.48290488    -0.19900
C1290       C  0.55598559  0.64532990  0.50530348    -0.06500
C1291       C  0.59074052  0.65671270  0.02679014     0.14400
C1292       C  0.60540757  0.69638620  0.02388746    -0.20000
C1293       C  0.58659524  0.72504780  0.50038625    -0.06500
C1294       C  0.55111168  0.71453230  0.48039368     0.14400
C1295       C  0.52757876  0.74534685  0.45771539    -0.23300
H1296       H  0.50937572  0.66716842  0.46711870     0.15600
H1297       H  0.63206548  0.70526424  0.03983268     0.15700
C1298       C  0.61301315  0.62779827  0.05272716    -0.23300
H1299       H  0.49864078  0.73279239  0.44697099     0.05900
H1300       H  0.54495237  0.75540082  0.93227884     0.09100
H1301       H  0.52058185  0.77171724  0.47622462     0.09100
H1302       H  0.62458841  0.60195805  0.03573514     0.09100
H1303       H  0.59269653  0.61687827  0.57584275     0.09100
H1304       H  0.63927428  0.64234789  0.06693894     0.05900
C1305       C  0.82284103  0.96235573  0.98768242    -0.19900
C1306       C  0.85439568  0.93677763  0.49911103    -0.06500
C1307       C  0.84558718  0.89613535  0.50916413     0.14400
C1308       C  0.80554482  0.88255993  0.50747091    -0.20000
C1309       C  0.77448290  0.90837791  0.49608066    -0.06500
C1310       C  0.78301878  0.94871137  0.98644276     0.14400
C1311       C  0.74984910  0.97760043  0.97597348    -0.23300
H1312       H  0.82920293  0.99352691  0.98036116     0.15600
H1313       H  0.79819717  0.85169136  0.51510418     0.15700
C1314       C  0.87788521  0.86658804  0.52083661    -0.23300
H1315       H  0.76154254  0.00850682  0.97053797     0.05900
H1316       H  0.72766482  0.97925592  0.49977498     0.09100
H1317       H  0.73454577  0.96716296  0.94949134     0.09100
H1318       H  0.89200617  0.87622343  0.54829567     0.09100
H1319       H  0.90108656  0.86462371  0.99797025     0.09100
H1320       H  0.86547625  0.83579944  0.52540994     0.05900
C1321       C  0.95270413  0.51164434  0.72784075    -0.19900
C1322       C  0.96088203  0.47680728  0.74942925    -0.06500
C1323       C  0.99789422  0.47348200  0.76919120     0.14400
C1324       C  0.02582220  0.50517923  0.76683192    -0.20000
C1325       C  0.01766334  0.54018652  0.74536926    -0.06500
C1326       C  0.98046225  0.54359615  0.72584615     0.14400
C1327       C  0.96918725  0.58138544  0.70431186    -0.23300
H1328       H  0.92413824  0.51388592  0.71287079     0.15600
H1329       H  0.05440354  0.50267846  0.78172252     0.15700
C1330       C  0.00865502  0.43609022  0.79162426    -0.23300
H1331       H  0.93774078  0.57999770  0.69343561     0.05900
H1332       H  0.98909436  0.58553903  0.67908750     0.09100
H1333       H  0.97175928  0.60793050  0.72364937     0.09100
H1334       H  0.00610039  0.40912236  0.77282984     0.09100
H1335       H  0.98841605  0.43264089  0.81671430     0.09100
H1336       H  0.03996720  0.43750031  0.80284218     0.05900
C1337       C  0.96215887  0.17686527  0.77084534    -0.19900
C1338       C  0.94155358  0.14676507  0.74992691    -0.06500
C1339       C  0.90661432  0.15802374  0.72861379     0.14400
C1340       C  0.89332015  0.19824957  0.72962302    -0.20000
C1341       C  0.91369064  0.22763511  0.75100374    -0.06500
C1342       C  0.94882319  0.21704676  0.77141653     0.14400
C1343       C  0.97325189  0.24844672  0.79245337    -0.23300
H1344       H  0.98921166  0.16915141  0.78665725     0.15600
H1345       H  0.86664971  0.20706230  0.71370775     0.15700
C1346       C  0.88277832  0.12845603  0.70462790    -0.23300
H1347       H  0.00144126  0.23557848  0.80451292     0.05900
H1348       H  0.95576182  0.26103993  0.81675420     0.09100
H1349       H  0.98161705  0.27314697  0.77237103     0.09100
H1350       H  0.87126841  0.10361118  0.72303942     0.09100
H1351       H  0.90195728  0.11615591  0.68130256     0.09100
H1352       H  0.85633675  0.14288904  0.69068416     0.05900
C1353       C  0.66910950  0.45481371  0.73251522    -0.19900
C1354       C  0.63825441  0.43267093  0.75054095    -0.06500
C1355       C  0.64781162  0.39447558  0.76699192     0.14400
C1356       C  0.68751240  0.38001101  0.76476845    -0.20000
C1357       C  0.71782553  0.40221377  0.74652996    -0.06500
C1358       C  0.70863894  0.44026390  0.73051484     0.14400
C1359       C  0.74077162  0.46653992  0.71287109    -0.23300
H1360       H  0.66252481  0.48417190  0.72028083     0.15600
H1361       H  0.69522314  0.35112151  0.77742063     0.15700
C1362       C  0.61685679  0.36833035  0.78670576    -0.23300
H1363       H  0.72887020  0.49664328  0.70460002     0.05900
H1364       H  0.75273853  0.45231425  0.68642980     0.09100
H1365       H  0.76561292  0.47125901  0.73383145     0.09100
H1366       H  0.59183755  0.36135788  0.76652774     0.09100
H1367       H  0.60510040  0.38390991  0.81260168     0.09100
H1368       H  0.62980967  0.33915369  0.79644208     0.05900
C1369       C  0.04610558  0.48138605  0.48094326    -0.19900
C1370       C  0.03835962  0.51722489  0.00112515    -0.06500
C1371       C  0.00149452  0.52134923  0.02122898     0.14400
C1372       C  0.97373306  0.48940868  0.02081914    -0.20000
C1373       C  0.98146435  0.45375322  0.00054592    -0.06500
C1374       C  0.01812244  0.44951373  0.48050983     0.14400
C1375       C  0.02815024  0.41101039  0.45969004    -0.23300
H1376       H  0.07437837  0.47835907  0.46569923     0.15600
H1377       H  0.94526959  0.49244403  0.03575085     0.15700
C1378       C  0.99010665  0.55989602  0.04147948    -0.23300
H1379       H  0.05893189  0.41198380  0.44728435     0.05900
H1380       H  0.00667236  0.40594105  0.43571895     0.09100
H1381       H  0.02661433  0.38517769  0.48000338     0.09100
H1382       H  0.99381269  0.58597476  0.02172213     0.09100
H1383       H  0.00878420  0.56426951  0.06755960     0.09100
H1384       H  0.95824133  0.55932903  0.05112587     0.05900
C1385       C  0.84315878  0.39775640  0.89528259    -0.19900
C1386       C  0.86605958  0.36856273  0.91510812    -0.06500
C1387       C  0.89554850  0.34785154  0.89301609     0.14400
C1388       C  0.89282114  0.34839784  0.85270864    -0.20000
C1389       C  0.86307950  0.37055706  0.83298622    -0.06500
C1390       C  0.84268707  0.40035796  0.85491357     0.14400
C1391       C  0.82388367  0.43779694  0.83786663    -0.23300
H1392       H  0.82821253  0.42135244  0.91114142     0.15600
H1393       H  0.91623346  0.33336218  0.83667268     0.15700
C1394       C  0.93241599  0.32766360  0.90973438    -0.23300
H1395       H  0.83834330  0.46486278  0.85075134     0.05900
H1396       H  0.79127280  0.43872288  0.84473589     0.09100
H1397       H  0.82798906  0.44054800  0.80645544     0.09100
H1398       H  0.93455765  0.32940098  0.94136301     0.09100
H1399       H  0.95979264  0.34258594  0.89813258     0.09100
H1400       H  0.93312005  0.29542001  0.90107982     0.05900
C1401       C  0.84745112  0.33167858  0.60349765    -0.19900
C1402       C  0.86124016  0.36560642  0.58291017    -0.06500
C1403       C  0.86528918  0.40222399  0.60407958     0.14400
C1404       C  0.86532689  0.40104554  0.64445392    -0.20000
C1405       C  0.85891724  0.36516040  0.66516603    -0.06500
C1406       C  0.84402003  0.33167783  0.64380757     0.14400
C1407       C  0.82082365  0.29701946  0.66133210    -0.23300
H1408       H  0.83572324  0.30589222  0.58813239     0.15600
H1409       H  0.86749402  0.42937234  0.65968468     0.15700
C1410       C  0.86664948  0.44378671  0.58615217    -0.23300
H1411       H  0.83694721  0.26820540  0.65619065     0.05900
H1412       H  0.79075675  0.29502575  0.64740165     0.09100
H1413       H  0.81516717  0.30043131  0.69245238     0.09100
H1414       H  0.86341994  0.44406575  0.55457439     0.09100
H1415       H  0.89536270  0.45897394  0.59390705     0.09100
H1416       H  0.84137862  0.46209490  0.59759431     0.05900
C1417       C  0.89949753  0.15045187  0.47751998    -0.19900
C1418       C  0.93616082  0.14439411  0.49728746    -0.06500
C1419       C  0.95458303  0.17817217  0.01552390     0.14400
C1420       C  0.93565710  0.21600822  0.01391811    -0.20000
C1421       C  0.89891656  0.22161551  0.49479907    -0.06500
C1422       C  0.88070216  0.18847470  0.47611765     0.14400
C1423       C  0.84071368  0.19266395  0.45601547    -0.23300
H1424       H  0.88496657  0.12515132  0.46343496     0.15600
H1425       H  0.94961723  0.24174931  0.02781202     0.15700
C1426       C  0.99421265  0.17537806  0.03666225    -0.23300
H1427       H  0.82952279  0.16317666  0.44515358     0.05900
H1428       H  0.84353448  0.21313446  0.93094375     0.09100
H1429       H  0.81800427  0.20485623  0.47629575     0.09100
H1430       H  0.01797307  0.16414281  0.01698275     0.09100
H1431       H  0.99121092  0.15501757  0.56187253     0.09100
H1432       H  0.00428073  0.20518829  0.04772803     0.05900
C1433       C  0.67529784  0.46882803  0.01588040    -0.19900
C1434       C  0.64460317  0.44327745  0.50198384    -0.06500
C1435       C  0.65513037  0.40419466  0.48844239     0.14400
C1436       C  0.69566424  0.39222548  0.48903216    -0.20000
C1437       C  0.72581764  0.41788091  0.50288374    -0.06500
C1438       C  0.71570780  0.45659682  0.01636016     0.14400
C1439       C  0.74782106  0.48539633  0.03001558    -0.23300
H1440       H  0.66779932  0.49883953  0.02594435     0.15600
H1441       H  0.70412546  0.36257921  0.47869506     0.15700
C1442       C  0.62421357  0.37441302  0.47399247    -0.23300
H1443       H  0.73501294  0.51514569  0.03810642     0.05900
H1444       H  0.77018390  0.49035467  0.00677153     0.09100
H1445       H  0.76330894  0.47284361  0.55566031     0.09100
H1446       H  0.60981437  0.38599908  0.94735938     0.09100
H1447       H  0.60107385  0.36905708  0.49644263     0.09100
H1448       H  0.63794467  0.34480981  0.46683236     0.05900
loop_ 
_geom_bond_atom_site_label_1 
_geom_bond_atom_site_label_2 
_geom_bond_distance 
_geom_bond_site_symmetry_2 
_ccdc_geom_bond_type 
C1            C3   1.531       .  S
C1            C5   1.552       .  S
C1            C4   1.537       .  S
C1          C678   1.541       .  S
C2            C6   1.547       .  S
C2            C8   1.548       .  S
C2            C7   1.537       .  S
C2          C662   1.544       .  S
C3           C11   1.375       .  A
C3          C730   1.394   1_554  A
C4           C15   1.379       .  A
C4          C731   1.390   1_554  A
C5           C19   1.381       .  A
C5          C732   1.403   1_554  A
C6            C9   1.384       .  A
C6          C727   1.394       .  A
C7           C13   1.377       .  A
C7          C728   1.390       .  A
C8           C16   1.382       .  A
C8          C729   1.403       .  A
C9           H22   1.082       .  S
C9          N734   1.355       .  A
N10          C11   1.353       .  A
N10         C733   1.355   1_554  A
N10         C713   1.432       .  S
C11          H12   1.082       .  S
C13          H23   1.082       .  S
C13          N14   1.357       .  A
N14         C739   1.358       .  A
N14         C649   1.437       .  S
C15          H21   1.082       .  S
C15         N738   1.358   1_554  A
C16          H18   1.079       .  S
C16         N741   1.357       .  A
N17          C19   1.358   1_556  A
N17         C740   1.357       .  A
N17         C697   1.443       .  S
C19          H20   1.082       .  S
C24          C26   1.540       .  S
C24          C28   1.534       .  S
C24          C27   1.547       .  S
C24         C681   1.541       .  S
C25          C29   1.551       .  S
C25          C31   1.542       .  S
C25          C30   1.533       .  S
C25         C665   1.542       .  S
C26          C34   1.378       .  A
C26          C29   1.398       .  A
C27          C38   1.382       .  A
C27          C30   1.394       .  A
C28          C42   1.374       .  A
C28          C31   1.395       .  A
C29          C32   1.381       .  A
C30          C36   1.375       .  A
C31          C39   1.380       .  A
C32          H45   1.082       .  S
C32          N33   1.355       .  A
N33          C34   1.355       .  A
N33         C617   1.436       .  S
C34          H35   1.081       .  S
C36          H46   1.081       .  S
C36          N37   1.356       .  A
N37          C38   1.357       .  A
N37         C598   1.436       .  S
C38          H44   1.082       .  S
C39          H41   1.081       .  S
C39          N40   1.358       .  A
N40          C42   1.356       .  A
N40         C633   1.436       .  S
C42          H43   1.082       .  S
C47          C49   1.540       .  S
C47          C51   1.550       .  S
C47          C50   1.532       .  S
C47         C537   1.544       .  S
C48          C52   1.530       .  S
C48          C54   1.544       .  S
C48          C53   1.538       .  S
C48         C550   1.543       .  S
C49          C57   1.378       .  A
C49         C776   1.395       .  A
C50          C61   1.373       .  A
C50         C777   1.395       .  A
C51          C65   1.379       .  A
C51         C778   1.402       .  A
C52          C55   1.373       .  A
C52         C773   1.395   1_554  A
C53          C59   1.376       .  A
C53         C774   1.395   1_554  A
C54          C62   1.377       .  A
C54         C775   1.402   1_554  A
C55          H68   1.082       .  S
C55          N56   1.353   1_554  A
N56         C781   1.356       .  A
N56         C585   1.428       .  S
C57          H58   1.082       .  S
C57         N780   1.356       .  A
C59          H69   1.080       .  S
C59          N60   1.357   1_554  A
N60         C785   1.355       .  A
N60         C518   1.432       .  S
C61          H67   1.083       .  S
C61         N784   1.355       .  A
C62          H64   1.082       .  S
C62          N63   1.355   1_554  A
N63         C789   1.357       .  A
N63         C569   1.436   1_556  S
C65          H66   1.081       .  S
C65         N787   1.357       .  A
C70          C72   1.537       .  S
C70          C74   1.545       .  S
C70          C73   1.544       .  S
C70         C553   1.545       .  S
C71          C75   1.545       .  S
C71          C77   1.546       .  S
C71          C76   1.530       .  S
C71         C534   1.544       .  S
C72          C80   1.375       .  A
C72          C75   1.396       .  A
C73          C84   1.380       .  A
C73          C76   1.392       .  A
C74          C88   1.381       .  A
C74          C77   1.401       .  A
C75          C78   1.381       .  A
C76          C82   1.373       .  A
C77          C85   1.377       .  A
C78          H91   1.080       .  S
C78          N79   1.358       .  A
N79          C80   1.359       .  A
N79         C505   1.440       .  S
C80          H81   1.082       .  S
C82          H92   1.082       .  S
C82          N83   1.356       .  A
N83          C84   1.357       .  A
N83         C470   1.436       .  S
C84          H90   1.081       .  S
C85          H87   1.080       .  S
C85          N86   1.355       .  A
N86          C88   1.357       .  A
N86         C489   1.435       .  S
C88          H89   1.082       .  S
Zn93         O98   2.027       .  S
Zn93        O102   2.004   1_545  S
Zn93        O109   1.986       .  S
Zn93        O821   1.947   1_545  S
Zn94         O99   1.992       .  S
Zn94        O101   2.018   1_455  S
Zn94        O105   2.010       .  S
Zn94         O97   1.950   1_445  S
Zn95        O100   2.002       .  S
Zn95        O103   1.984       .  S
Zn95        O106   2.004   1_655  S
Zn95         O97   1.949       .  S
Zn96        O104   2.013       .  S
Zn96        O107   1.995   1_565  S
Zn96        O108   1.990       .  S
Zn96        O821   1.949   1_455  S
O97        Zn817   1.947   1_564  S
O97        Zn820   1.949   1_654  S
O98         C834   1.274       .  A
O99         C111   1.270   1_445  A
O100        C112   1.270   1_554  A
O101        C110   1.272   1_554  A
O102        C836   1.273       .  A
O103        C111   1.269       .  A
O104        C837   1.270       .  A
O105        C114   1.273       .  A
O106        C113   1.271       .  A
O107        C838   1.270       .  A
O108        C115   1.270   1_455  A
O109        C115   1.269   1_545  A
C110        O822   1.274       .  A
C110        C694   1.499       .  S
C111        C138   1.440   1_565  S
C112        O826   1.273       .  A
C112        C582   1.481       .  S
C113        O828   1.270   1_554  A
C113        C454   1.488       .  S
C114        O831   1.270   1_554  A
C114        C438   1.489       .  S
C115        C134   1.442   1_655  S
Zn116       O121   2.006       .  S
Zn116       O125   2.005   1_545  S
Zn116       O132   1.990       .  S
Zn116       O120   1.942   1_545  S
Zn117       O122   1.990       .  S
Zn117       O124   2.026   1_455  S
Zn117       O128   2.013       .  S
Zn117       O120   1.957   1_445  S
Zn118       O123   2.026       .  S
Zn118       O126   1.995       .  S
Zn118       O129   2.023   1_655  S
Zn118       O120   1.955       .  S
Zn119       O127   2.000       .  S
Zn119       O130   1.984   1_565  S
Zn119       O131   1.980       .  S
Zn119       O120   1.942   1_455  S
O121        C133   1.270       .  A
O122        C134   1.271   1_545  A
O123        C135   1.275       .  A
O124        C133   1.274       .  A
O125        C135   1.271       .  A
O126        C134   1.271   1_655  A
O127        C136   1.269       .  A
O128        C137   1.273       .  A
O129        C136   1.274       .  A
O130        C137   1.268       .  A
O131        C138   1.268   1_465  A
O132        C138   1.269       .  A
C133        C614   1.497       .  S
C135        C502   1.497       .  S
C136        C422   1.486       .  S
C137        C406   1.484       .  S
C139        C141   1.532       .  S
C139        C143   1.545       .  S
C139        C142   1.546       .  S
C139        C358   1.542       .  S
C140        C144   1.538       .  S
C140        C146   1.532       .  S
C140        C145   1.550       .  S
C140        C374   1.542       .  S
C141        C149   1.375       .  A
C141        C868   1.391       .  A
C142        C153   1.382       .  A
C142        C869   1.400       .  A
C143        C157   1.383       .  A
C143        C870   1.400       .  A
C144        C147   1.377       .  A
C144        C865   1.391   1_554  A
C145        C151   1.379       .  A
C145        C866   1.400   1_554  A
C146        C154   1.376       .  A
C146        C867   1.400   1_554  A
C147        H160   1.081       .  S
C147        N872   1.356   1_554  A
N148        C149   1.355       .  A
N148        C871   1.356       .  A
N148        C457   1.432       .  S
C149        H150   1.083       .  S
C151        H161   1.079       .  S
C151        N876   1.355       .  A
N152        C153   1.359       .  A
N152        C875   1.355       .  A
N152        C646   1.441       .  S
C153        H159   1.082       .  S
C154        H156   1.082       .  S
C154        N879   1.353   1_554  A
N155        C157   1.353       .  A
N155        C878   1.353       .  A
N155        C390   1.433       .  S
C157        H158   1.082       .  S
C162        C164   1.535       .  S
C162        C166   1.533       .  S
C162        C165   1.548       .  S
C162        C361   1.542       .  S
C163        C167   1.533       .  S
C163        C169   1.546       .  S
C163        C168   1.546       .  S
C163        C377   1.544       .  S
C164        C172   1.376       .  A
C164        C167   1.388       .  A
C165        C176   1.379       .  A
C165        C168   1.400       .  A
C166        C180   1.375       .  A
C166        C169   1.402       .  A
C167        C170   1.373       .  A
C168        C174   1.381       .  A
C169        C177   1.384       .  A
C170        H183   1.081       .  S
C170        N171   1.357       .  A
N171        C172   1.359       .  A
N171        C342   1.439       .  S
C172        H173   1.082       .  S
C174        H184   1.080       .  S
C174        N175   1.358       .  A
N175        C176   1.355       .  A
N175        C601   1.440       .  S
C176        H182   1.081       .  S
C177        H179   1.082       .  S
C177        N178   1.352       .  A
N178        C180   1.350       .  A
N178        C425   1.429       .  S
C180        H181   1.083       .  S
C185        C187   1.550       .  S
C185        C189   1.531       .  S
C185        C188   1.538       .  S
C185        C310   1.541       .  S
C186        C190   1.547       .  S
C186        C192   1.535       .  S
C186        C191   1.527       .  S
C186        C297   1.540       .  S
C187        C195   1.379       .  A
C187        C914   1.404   1_554  A
C188        C199   1.378       .  A
C188        C915   1.391   1_554  A
C189        C203   1.373       .  A
C189        C916   1.393   1_554  A
C190        C193   1.378       .  A
C190        C911   1.404       .  A
C191        C197   1.371       .  A
C191        C912   1.391       .  A
C192        C200   1.373       .  A
C192        C913   1.393       .  A
C193        H206   1.083       .  S
C193        N918   1.356       .  A
N194        C195   1.357       .  A
N194        C917   1.356   1_554  A
N194        C326   1.436   1_554  S
C195        H196   1.081       .  S
C197        H207   1.083       .  S
C197        N922   1.352       .  A
N198        C199   1.357   1_556  A
N198        C921   1.352       .  A
N198        C521   1.429       .  S
C199        H205   1.081       .  S
C200        H202   1.081       .  S
C200        N925   1.356       .  A
N201        C203   1.355       .  A
N201        C924   1.356   1_554  A
N201        C441   1.430       .  S
C203        H204   1.082       .  S
C208        C210   1.537       .  S
C208        C212   1.544       .  S
C208        C211   1.532       .  S
C208        C294   1.542       .  S
C209        C213   1.540       .  S
C209        C215   1.529       .  S
C209        C214   1.545       .  S
C209        C313   1.543       .  S
C210        C218   1.373       .  A
C210        C213   1.399       .  A
C211        C222   1.373       .  A
C211        C214   1.396       .  A
C212        C226   1.379       .  A
C212        C215   1.396       .  A
C213        C216   1.375       .  A
C214        C220   1.379       .  A
C215        C223   1.371       .  A
C216        H229   1.081       .  S
C216        N217   1.352       .  A
N217        C218   1.351       .  A
N217        C281   1.423       .  S
C218        H219   1.081       .  S
C220        H230   1.081       .  S
C220        N221   1.359       .  A
N221        C222   1.356       .  A
N221        C473   1.438       .  S
C222        H228   1.081       .  S
C223        H225   1.082       .  S
C223        N224   1.354       .  A
N224        C226   1.356       .  A
N224        C409   1.429       .  S
C226        H227   1.081       .  S
Zn231       O236   2.009       .  S
Zn231       O240   1.980       .  S
Zn231       O247   2.005       .  S
Zn231       O959   1.944       .  S
Zn232       O237   2.012       .  S
Zn232       O239   2.017       .  S
Zn232       O243   1.981       .  S
Zn232       O235   1.948       .  S
Zn233       O238   1.983       .  S
Zn233       O241   2.012       .  S
Zn233       O244   2.003       .  S
Zn233       O959   1.948       .  S
Zn234       O242   2.022       .  S
Zn234       O245   2.000       .  S
Zn234       O246   2.026       .  S
Zn234       O235   1.957       .  S
O235       Zn955   1.944   1_554  S
O235       Zn957   1.948   1_554  S
O236        C972   1.271       .  A
O237        C249   1.270       .  A
O238        C250   1.270       .  A
O239        C248   1.273       .  A
O240        C250   1.270       .  A
O241        C973   1.273       .  A
O242        C251   1.274   1_554  A
O243        C252   1.271       .  A
O244        C975   1.270       .  A
O245        C252   1.273       .  A
O246        C253   1.274   1_554  A
O247        C977   1.270       .  A
C248        O960   1.271   1_554  A
C248        C710   1.490       .  S
C249        O965   1.273   1_554  A
C249        C566   1.495       .  S
C250        C273   1.449       .  S
C251        O968   1.270       .  A
C251        C393   1.494       .  S
C252        C275   1.453       .  S
C253        O971   1.270       .  A
C253        C329   1.497       .  S
Zn254       O259   1.994       .  S
Zn254       O263   1.977       .  S
Zn254       O270   2.003       .  S
Zn254       O258   1.944       .  S
Zn255       O260   1.995       .  S
Zn255       O262   1.994       .  S
Zn255       O266   1.988       .  S
Zn255       O258   1.947       .  S
Zn256       O261   1.987       .  S
Zn256       O264   2.014       .  S
Zn256       O267   2.009       .  S
Zn256       O258   1.946       .  S
Zn257       O265   2.020       .  S
Zn257       O268   1.990       .  S
Zn257       O269   2.018       .  S
Zn257       O258   1.943       .  S
O259        C271   1.271       .  A
O260        C272   1.271       .  A
O261        C273   1.271       .  A
O262        C271   1.269       .  A
O263        C273   1.270       .  A
O264        C272   1.271       .  A
O265        C274   1.275       .  A
O266        C275   1.271       .  A
O267        C274   1.271       .  A
O268        C275   1.272       .  A
O269        C276   1.274       .  A
O270        C276   1.269       .  A
C271        C278   1.474       .  S
C272        C345   1.492       .  S
C274        C486   1.495       .  S
C276        C630   1.493       .  S
C277        C278   1.405       .  A
C277        C282   1.396       .  A
C277        H284   1.084       .  S
C278        C279   1.419       .  A
C279        C286   1.508       .  S
C279        C280   1.401       .  A
C280        C281   1.397       .  A
C280        H285   1.084       .  S
C281        C282   1.404       .  A
C282        C283   1.504       .  S
C283        H287   1.111       .  S
C283        H288   1.110       .  S
C283        H289   1.107       .  S
C286        H290   1.109       .  S
C286        H291   1.111       .  S
C286        H292   1.111       .  S
C293        C294   1.406       .  A
C293        C298   1.407       .  A
C293        H300   1.081       .  S
C294        C295   1.422       .  A
C295        C302   1.507       .  S
C295        C296   1.404       .  A
C296        C297   1.407       .  A
C296        H301   1.082       .  S
C297        C298   1.426       .  A
C298        C299   1.510       .  S
C299        H303   1.110       .  S
C299        H304   1.111       .  S
C299        H305   1.105       .  S
C302        H306   1.109       .  S
C302        H307   1.105       .  S
C302        H308   1.111       .  S
C309        C310   1.407       .  A
C309        C314   1.407       .  A
C309        H316   1.081       .  S
C310        C311   1.424       .  A
C311        C318   1.510       .  S
C311        C312   1.406       .  A
C312        C313   1.407       .  A
C312        H317   1.081       .  S
C313        C314   1.425       .  A
C314        C315   1.510       .  S
C315        H319   1.111       .  S
C315        H320   1.110       .  S
C315        H321   1.105       .  S
C318        H322   1.110       .  S
C318        H323   1.105       .  S
C318        H324   1.111       .  S
C325        C330   1.404       .  A
C325       C1050   1.398       .  A
C325        H332   1.084       .  S
C326        C327   1.409   1_556  A
C326       C1049   1.398       .  A
C327        C334   1.507       .  S
C327        C328   1.404       .  A
C328        C329   1.411   1_554  A
C328        H333   1.083       .  S
C329       C1054   1.425       .  A
C330        C331   1.509       .  S
C330       C1053   1.425       .  A
C331        H335   1.111       .  S
C331        H337   1.110       .  S
C331       H1060   1.110       .  S
C334        H338   1.108       .  S
C334        H340   1.111       .  S
C334       H1063   1.111       .  S
H336       C1055   1.110       .  S
H339       C1058   1.111       .  S
C341        C342   1.402       .  A
C341        C346   1.403       .  A
C341        H348   1.083       .  S
C342        C343   1.411       .  A
C343        C350   1.508       .  S
C343        C344   1.401       .  A
C344        C345   1.410       .  A
C344        H349   1.084       .  S
C345        C346   1.421       .  A
C346        C347   1.509       .  S
C347        H351   1.111       .  S
C347        H352   1.110       .  S
C347        H353   1.111       .  S
C350        H354   1.107       .  S
C350        H355   1.110       .  S
C350        H356   1.111       .  S
C357        C358   1.410       .  A
C357        C362   1.404       .  A
C357        H364   1.080       .  S
C358        C359   1.422       .  A
C359        C366   1.510       .  S
C359        C360   1.406       .  A
C360        C361   1.408       .  A
C360        H365   1.079       .  S
C361        C362   1.422       .  A
C362        C363   1.511       .  S
C363        H367   1.111       .  S
C363        H368   1.103       .  S
C363        H369   1.110       .  S
C366        H370   1.111       .  S
C366        H371   1.103       .  S
C366        H372   1.110       .  S
C373        C374   1.406       .  A
C373        C378   1.405       .  A
C373        H380   1.079       .  S
C374        C375   1.421       .  A
C375        C382   1.510       .  S
C375        C376   1.406       .  A
C376        C377   1.410       .  A
C376        H381   1.079       .  S
C377        C378   1.425       .  A
C378        C379   1.511       .  S
C379        H383   1.111       .  S
C379        H384   1.110       .  S
C379        H385   1.103       .  S
C382        H386   1.110       .  S
C382        H387   1.104       .  S
C382        H388   1.110       .  S
C389        C390   1.398       .  A
C389        C394   1.403       .  A
C389        H396   1.084       .  S
C390       C1115   1.407       .  A
C391        C398   1.506       .  S
C391        C392   1.403       .  A
C391       C1114   1.407   1_554  A
C392        C393   1.410   1_554  A
C392        H397   1.083       .  S
C393       C1118   1.425       .  A
C394        C395   1.509       .  S
C394       C1117   1.425       .  A
C395        H399   1.111       .  S
C395        H400   1.110       .  S
C395        H401   1.110       .  S
C398        H402   1.111       .  S
C398        H403   1.108       .  S
C398        H404   1.111       .  S
C405        C406   1.408       .  A
C405        C410   1.401       .  A
C405        H412   1.084       .  S
C406        C407   1.422       .  A
C407        C414   1.510   1_545  S
C407        C408   1.399       .  A
C408        C409   1.397       .  A
C408        H413   1.083       .  S
C409        C410   1.406       .  A
C410        C411   1.505       .  S
C411        H415   1.111       .  S
C411        H416   1.110       .  S
C411        H417   1.109       .  S
C414        H418   1.110       .  S
C414        H419   1.110       .  S
C414        H420   1.111       .  S
C421        C422   1.408       .  A
C421        C426   1.402       .  A
C421        H428   1.084       .  S
C422        C423   1.422       .  A
C423        C430   1.509       .  S
C423        C424   1.404       .  A
C424        C425   1.397       .  A
C424        H429   1.083       .  S
C425        C426   1.405       .  A
C426        C427   1.505       .  S
C427        H431   1.110   1_455  S
C427        H432   1.110       .  S
C427        H433   1.111       .  S
C430        H434   1.110       .  S
C430        H435   1.110       .  S
C430        H436   1.111       .  S
C437        C438   1.412       .  A
C437        C442   1.402       .  A
C437        H444   1.083       .  S
C438       C1163   1.423   1_554  A
C439        C446   1.510       .  S
C439        C440   1.399       .  A
C439       C1162   1.423       .  A
C440       C1165   1.397       .  A
C440        H445   1.084       .  S
C441        C442   1.405       .  A
C441       C1164   1.397   1_554  A
C442        C443   1.506       .  S
C443        H447   1.111       .  S
C443        H449   1.109       .  S
C443       H1172   1.110       .  S
C446        H450   1.110       .  S
C446        H452   1.111   1_545  S
C446       H1175   1.110   1_545  S
H448       C1167   1.110       .  S
H451       C1170   1.110   1_565  S
C453        C458   1.401       .  A
C453       C1178   1.409       .  A
C453        H460   1.084   1_455  S
C454        C455   1.421   1_554  A
C454       C1177   1.409       .  A
C455        C462   1.509       .  S
C455        C456   1.404       .  A
C456       C1181   1.400       .  A
C456        H461   1.084       .  S
C457        C458   1.405       .  A
C457       C1180   1.400       .  A
C458        C459   1.506       .  S
C459        H463   1.111   1_455  S
C459        H465   1.111       .  S
C459       H1188   1.109       .  S
C462        H466   1.110       .  S
C462        H468   1.111       .  S
C462       H1191   1.110       .  S
H464       C1183   1.109       .  S
H467       C1186   1.110       .  S
C469        C470   1.401       .  A
C469        C474   1.401       .  A
C469        H476   1.083       .  S
C470        C471   1.414   1_565  A
C471        C478   1.507       .  S
C471        C472   1.403       .  A
C472        C473   1.403       .  A
C472        H477   1.083       .  S
C473        C474   1.414   1_545  A
C474        C475   1.507       .  S
C475        H479   1.111       .  S
C475        H480   1.110       .  S
C475        H481   1.107       .  S
C478        H482   1.108   1_545  S
C478        H483   1.110       .  S
C478        H484   1.111       .  S
C485        C486   1.410       .  A
C485        C490   1.403       .  A
C485        H492   1.084       .  S
C486        C487   1.425       .  A
C487        C494   1.509       .  S
C487        C488   1.405       .  A
C488        C489   1.399       .  A
C488        H493   1.084       .  S
C489        C490   1.406       .  A
C490        C491   1.504       .  S
C491        H495   1.111       .  S
C491        H496   1.110       .  S
C491        H497   1.107       .  S
C494        H498   1.110       .  S
C494        H499   1.110       .  S
C494        H500   1.111       .  S
C501        C502   1.410       .  A
C501        C506   1.405       .  A
C501        H508   1.084       .  S
C502        C503   1.424       .  A
C503        C510   1.510       .  S
C503        C504   1.403       .  A
C504        C505   1.400       .  A
C504        H509   1.083       .  S
C505        C506   1.411       .  A
C506        C507   1.507       .  S
C507        H511   1.111       .  S
C507        H512   1.110       .  S
C507        H513   1.107       .  S
C510        H514   1.110       .  S
C510        H515   1.110   1_565  S
C510        H516   1.111   1_565  S
C517        C522   1.401       .  A
C517       C1242   1.402   1_545  A
C517        H524   1.084       .  S
C518        C519   1.411   1_556  A
C518       C1241   1.402   1_565  A
C519        C526   1.506       .  S
C519        C520   1.401       .  A
C520        C521   1.400   1_564  A
C520        H525   1.084       .  S
C521       C1246   1.410       .  A
C522        C523   1.506       .  S
C522       C1245   1.410       .  A
C523        H527   1.111       .  S
C523        H528   1.110       .  S
C523        H529   1.109       .  S
C526        H530   1.108       .  S
C526        H531   1.110       .  S
C526        H532   1.111       .  S
C533        C534   1.407       .  A
C533        C538   1.405       .  A
C533        H540   1.083       .  S
C534        C535   1.424       .  A
C535        C542   1.509       .  S
C535        C536   1.409       .  A
C536        C537   1.409       .  A
C536        H541   1.081       .  S
C537        C538   1.423       .  A
C538        C539   1.507       .  S
C539        H543   1.111       .  S
C539        H544   1.109       .  S
C539        H545   1.105       .  S
C542        H546   1.110       .  S
C542        H547   1.105       .  S
C542        H548   1.111       .  S
C549        C550   1.409       .  A
C549        C554   1.406       .  A
C549        H556   1.083       .  S
C550        C551   1.423       .  A
C551        C558   1.509       .  S
C551        C552   1.408       .  A
C552        C553   1.410       .  A
C552        H557   1.082       .  S
C553        C554   1.421       .  A
C554        C555   1.507       .  S
C555        H559   1.111       .  S
C555        H560   1.108       .  S
C555        H561   1.105       .  S
C558        H562   1.110       .  S
C558        H563   1.105       .  S
C558        H564   1.111       .  S
C565        C566   1.409   1_556  A
C565        C570   1.402       .  A
C565        H572   1.084       .  S
C566       C1291   1.424       .  A
C567        C574   1.509       .  S
C567        C568   1.405       .  A
C567       C1290   1.424       .  A
C568       C1293   1.399       .  A
C568        H573   1.084       .  S
C569        C570   1.410   1_554  A
C569       C1292   1.399       .  A
C570        C571   1.508       .  S
C571        H575   1.111       .  S
C571        H577   1.111       .  S
C571       H1300   1.108       .  S
C574        H578   1.110       .  S
C574        H580   1.111       .  S
C574       H1303   1.110       .  S
H576       C1295   1.108       .  S
H579       C1298   1.110       .  S
C581        C586   1.398       .  A
C581       C1306   1.405       .  A
C581        H588   1.084       .  S
C582        C583   1.421   1_556  A
C582       C1305   1.405       .  A
C583        C590   1.508       .  S
C583        C584   1.404       .  A
C584        C585   1.398   1_554  A
C584        H589   1.084       .  S
C585       C1310   1.406       .  A
C586        C587   1.504       .  S
C586       C1309   1.406       .  A
C587        H591   1.111   1_565  S
C587        H593   1.106       .  S
C587       H1316   1.110       .  S
C590        H594   1.109       .  S
C590        H596   1.111       .  S
C590       H1319   1.110   1_554  S
H592       C1311   1.110       .  S
H595       C1314   1.110       .  S
C597        C598   1.403       .  A
C597        C602   1.404       .  A
C597        H604   1.084       .  S
C598        C599   1.411       .  A
C599        C606   1.506   1_655  S
C599        C600   1.403   1_655  A
C600        C601   1.405       .  A
C600        H605   1.083       .  S
C601        C602   1.413   1_455  A
C602        C603   1.506       .  S
C603        H607   1.111       .  S
C603        H608   1.108       .  S
C603        H609   1.110       .  S
C606        H610   1.110       .  S
C606        H611   1.108   1_455  S
C606        H612   1.111       .  S
C613        C614   1.410       .  A
C613        C618   1.404       .  A
C613        H620   1.083       .  S
C614        C615   1.425       .  A
C615        C622   1.509       .  S
C615        C616   1.405       .  A
C616        C617   1.398       .  A
C616        H621   1.084       .  S
C617        C618   1.409       .  A
C618        C619   1.507       .  S
C619        H623   1.111   1_655  S
C619        H624   1.108       .  S
C619        H625   1.111       .  S
C622        H626   1.110       .  S
C622        H627   1.110       .  S
C622        H628   1.111       .  S
C629        C630   1.407       .  A
C629        C634   1.401       .  A
C629        H636   1.084       .  S
C630        C631   1.424       .  A
C631        C638   1.509       .  S
C631        C632   1.406       .  A
C632        C633   1.399       .  A
C632        H637   1.084       .  S
C633        C634   1.411       .  A
C634        C635   1.507       .  S
C635        H639   1.111       .  S
C635        H640   1.108       .  S
C635        H641   1.110       .  S
C638        H642   1.110       .  S
C638        H643   1.110       .  S
C638        H644   1.111       .  S
C645        C650   1.406       .  A
C645       C1370   1.404   1_556  A
C645        H652   1.084       .  S
C646        C647   1.418       .  A
C646       C1369   1.404       .  A
C647        C654   1.508   1_455  S
C647        C648   1.403   1_455  A
C648        C649   1.400       .  A
C648        H653   1.084       .  S
C649       C1374   1.411   1_655  A
C650        C651   1.505       .  S
C650       C1373   1.411   1_456  A
C651        H655   1.111       .  S
C651        H656   1.108       .  S
C651        H657   1.110       .  S
C654        H658   1.110       .  S
C654        H659   1.107   1_655  S
C654        H660   1.111       .  S
C661        C662   1.410       .  A
C661        C666   1.406       .  A
C661        H668   1.079       .  S
C662        C663   1.423       .  A
C663        C670   1.511       .  S
C663        C664   1.404       .  A
C664        C665   1.408       .  A
C664        H669   1.080       .  S
C665        C666   1.421       .  A
C666        C667   1.510       .  S
C667        H671   1.111       .  S
C667        H672   1.110       .  S
C667        H673   1.104       .  S
C670        H674   1.103       .  S
C670        H675   1.111       .  S
C670        H676   1.110       .  S
C677        C678   1.409       .  A
C677        C682   1.406       .  A
C677        H684   1.080       .  S
C678        C679   1.425       .  A
C679        C686   1.512       .  S
C679        C680   1.404       .  A
C680        C681   1.406       .  A
C680        H685   1.080       .  S
C681        C682   1.423       .  A
C682        C683   1.510       .  S
C683        H687   1.110       .  S
C683        H688   1.111       .  S
C683        H689   1.104       .  S
C686        H690   1.103       .  S
C686        H691   1.110       .  S
C686        H692   1.111       .  S
C693        C694   1.411       .  A
C693        C698   1.408       .  A
C693        H700   1.083       .  S
C694       C1419   1.423   1_556  A
C695        C702   1.509       .  S
C695        C696   1.404       .  A
C695       C1418   1.423       .  A
C696       C1421   1.401       .  A
C696        H701   1.083       .  S
C697        C698   1.411       .  A
C697       C1420   1.401   1_556  A
C698        C699   1.506       .  S
C699        H703   1.111       .  S
C699        H705   1.110       .  S
C699       H1428   1.108       .  S
C702        H706   1.110   1_655  S
C702        H708   1.111   1_655  S
C702       H1431   1.110       .  S
H704       C1423   1.108       .  S
H707       C1426   1.110       .  S
C709        C714   1.403       .  A
C709       C1434   1.409       .  A
C709        H716   1.084       .  S
C710        C711   1.422   1_554  A
C710       C1433   1.409       .  A
C711        C718   1.508       .  S
C711        C712   1.404       .  A
C712        C713   1.398   1_556  A
C712        H717   1.084       .  S
C713       C1438   1.407       .  A
C714        C715   1.506       .  S
C714       C1437   1.407       .  A
C715        H719   1.111       .  S
C715        H720   1.111       .  S
C715       H1445   1.109       .  S
C718        H723   1.110       .  S
C718        H724   1.111       .  S
C718       H1446   1.110       .  S
H721       C1439   1.109       .  S
H722       C1442   1.110       .  S
C725        C727   1.531       .  S
C725        C729   1.552       .  S
C725        C728   1.537       .  S
C725       C1402   1.541       .  S
C726        C730   1.547       .  S
C726        C732   1.548       .  S
C726        C731   1.537       .  S
C726       C1386   1.544       .  S
C727        C735   1.375       .  A
C728        C739   1.379       .  A
C729        C743   1.381       .  A
C730        C733   1.384       .  A
C731        C737   1.377       .  A
C732        C740   1.382       .  A
C733        H746   1.082       .  S
N734        C735   1.353       .  A
N734       C1437   1.432       .  S
C735        H736   1.082       .  S
C737        H747   1.082       .  S
C737        N738   1.357       .  A
N738       C1373   1.437   1_556  S
C739        H745   1.082       .  S
C740        H742   1.079       .  S
N741        C743   1.358       .  A
N741       C1421   1.443       .  S
C743        H744   1.082       .  S
C748        C750   1.540       .  S
C748        C752   1.534       .  S
C748        C751   1.547       .  S
C748       C1405   1.541       .  S
C749        C753   1.551       .  S
C749        C755   1.542       .  S
C749        C754   1.533       .  S
C749       C1389   1.542       .  S
C750        C758   1.378       .  A
C750        C753   1.398       .  A
C751        C762   1.382       .  A
C751        C754   1.394       .  A
C752        C766   1.374       .  A
C752        C755   1.395       .  A
C753        C756   1.381       .  A
C754        C760   1.375       .  A
C755        C763   1.380       .  A
C756        H769   1.082       .  S
C756        N757   1.355       .  A
N757        C758   1.355       .  A
N757       C1341   1.436       .  S
C758        H759   1.081       .  S
C760        H770   1.081       .  S
C760        N761   1.356       .  A
N761        C762   1.357       .  A
N761       C1322   1.436       .  S
C762        H768   1.082       .  S
C763        H765   1.081       .  S
C763        N764   1.358       .  A
N764        C766   1.356       .  A
N764       C1357   1.436       .  S
C766        H767   1.082       .  S
C771        C773   1.540       .  S
C771        C775   1.550       .  S
C771        C774   1.532       .  S
C771       C1261   1.544       .  S
C772        C776   1.530       .  S
C772        C778   1.544       .  S
C772        C777   1.538       .  S
C772       C1274   1.543       .  S
C773        C781   1.378       .  A
C774        C785   1.373       .  A
C775        C789   1.379       .  A
C776        C779   1.373       .  A
C777        C783   1.376       .  A
C778        C786   1.377       .  A
C779        H792   1.082       .  S
C779        N780   1.353       .  A
N780       C1309   1.428       .  S
C781        H782   1.082       .  S
C783        H793   1.080       .  S
C783        N784   1.357       .  A
N784       C1242   1.432       .  S
C785        H791   1.083       .  S
C786        H788   1.082       .  S
C786        N787   1.355       .  A
N787       C1293   1.436       .  S
C789        H790   1.081       .  S
C794        C796   1.537       .  S
C794        C798   1.545       .  S
C794        C797   1.544       .  S
C794       C1277   1.545       .  S
C795        C799   1.545       .  S
C795        C801   1.546       .  S
C795        C800   1.530       .  S
C795       C1258   1.544       .  S
C796        C804   1.375       .  A
C796        C799   1.396       .  A
C797        C808   1.380       .  A
C797        C800   1.392       .  A
C798        C812   1.381       .  A
C798        C801   1.401       .  A
C799        C802   1.381       .  A
C800        C806   1.373       .  A
C801        C809   1.377       .  A
C802        H815   1.080       .  S
C802        N803   1.358       .  A
N803        C804   1.359       .  A
N803       C1229   1.440       .  S
C804        H805   1.082       .  S
C806        H816   1.082       .  S
C806        N807   1.356       .  A
N807        C808   1.357       .  A
N807       C1194   1.436       .  S
C808        H814   1.081       .  S
C809        H811   1.080       .  S
C809        N810   1.355       .  A
N810        C812   1.357       .  A
N810       C1213   1.435       .  S
C812        H813   1.082       .  S
Zn817       O822   2.027       .  S
Zn817       O826   2.004   1_545  S
Zn817       O833   1.986       .  S
Zn818       O823   1.992       .  S
Zn818       O825   2.018   1_455  S
Zn818       O829   2.010       .  S
Zn818       O821   1.950   1_445  S
Zn819       O824   2.002       .  S
Zn819       O827   1.984       .  S
Zn819       O830   2.004   1_655  S
Zn819       O821   1.949       .  S
Zn820       O828   2.013       .  S
Zn820       O831   1.995   1_565  S
Zn820       O832   1.990       .  S
O823        C835   1.270   1_445  A
O824        C836   1.270       .  A
O825        C834   1.272       .  A
O827        C835   1.269       .  A
O829        C838   1.273       .  A
O830        C837   1.271       .  A
O832        C839   1.270   1_455  A
O833        C839   1.269   1_545  A
C834       C1418   1.499       .  S
C835        C862   1.440   1_565  S
C836       C1306   1.481       .  S
C837       C1178   1.488       .  S
C838       C1162   1.489       .  S
C839        C858   1.442   1_655  S
Zn840       O845   2.006       .  S
Zn840       O849   2.005   1_545  S
Zn840       O856   1.990       .  S
Zn840       O844   1.942   1_545  S
Zn841       O846   1.990       .  S
Zn841       O848   2.026   1_455  S
Zn841       O852   2.013       .  S
Zn841       O844   1.957   1_445  S
Zn842       O847   2.026       .  S
Zn842       O850   1.995       .  S
Zn842       O853   2.023   1_655  S
Zn842       O844   1.955       .  S
Zn843       O851   2.000       .  S
Zn843       O854   1.984   1_565  S
Zn843       O855   1.980       .  S
Zn843       O844   1.942   1_455  S
O845        C857   1.270       .  A
O846        C858   1.271   1_545  A
O847        C859   1.275       .  A
O848        C857   1.274       .  A
O849        C859   1.271       .  A
O850        C858   1.271   1_655  A
O851        C860   1.269       .  A
O852        C861   1.273       .  A
O853        C860   1.274       .  A
O854        C861   1.268       .  A
O855        C862   1.268   1_465  A
O856        C862   1.269       .  A
C857       C1338   1.497       .  S
C859       C1226   1.497       .  S
C860       C1146   1.486       .  S
C861       C1130   1.484       .  S
C863        C865   1.532       .  S
C863        C867   1.545       .  S
C863        C866   1.546       .  S
C863       C1082   1.542       .  S
C864        C868   1.538       .  S
C864        C870   1.532       .  S
C864        C869   1.550       .  S
C864       C1098   1.542       .  S
C865        C873   1.375       .  A
C866        C877   1.382       .  A
C867        C881   1.383       .  A
C868        C871   1.377       .  A
C869        C875   1.379       .  A
C870        C878   1.376       .  A
C871        H884   1.081       .  S
N872        C873   1.355       .  A
N872       C1181   1.432       .  S
C873        H874   1.083       .  S
C875        H885   1.079       .  S
N876        C877   1.359   1_554  A
N876       C1370   1.441       .  S
C877        H883   1.082       .  S
C878        H880   1.082       .  S
N879        C881   1.353       .  A
N879       C1114   1.433       .  S
C881        H882   1.082       .  S
C886        C888   1.535       .  S
C886        C890   1.533       .  S
C886        C889   1.548       .  S
C886       C1085   1.542       .  S
C887        C891   1.533       .  S
C887        C893   1.546       .  S
C887        C892   1.546       .  S
C887       C1101   1.544       .  S
C888        C896   1.376       .  A
C888        C891   1.388       .  A
C889        C900   1.379       .  A
C889        C892   1.400       .  A
C890        C904   1.375       .  A
C890        C893   1.402       .  A
C891        C894   1.373       .  A
C892        C898   1.381       .  A
C893        C901   1.384       .  A
C894        H907   1.081       .  S
C894        N895   1.357       .  A
N895        C896   1.359       .  A
N895       C1066   1.439       .  S
C896        H897   1.082       .  S
C898        H908   1.080       .  S
C898        N899   1.358       .  A
N899        C900   1.355       .  A
N899       C1325   1.440       .  S
C900        H906   1.081       .  S
C901        H903   1.082       .  S
C901        N902   1.352       .  A
N902        C904   1.350       .  A
N902       C1149   1.429       .  S
C904        H905   1.083       .  S
C909        C911   1.550       .  S
C909        C913   1.531       .  S
C909        C912   1.538       .  S
C909       C1034   1.541       .  S
C910        C914   1.547       .  S
C910        C916   1.535       .  S
C910        C915   1.527       .  S
C910       C1021   1.540       .  S
C911        C919   1.379       .  A
C912        C923   1.378       .  A
C913        C927   1.373       .  A
C914        C917   1.378       .  A
C915        C921   1.371       .  A
C916        C924   1.373       .  A
C917        H930   1.083       .  S
N918        C919   1.357       .  A
N918       C1050   1.436       .  S
C919        H920   1.081       .  S
C921        H931   1.083       .  S
N922        C923   1.357       .  A
N922       C1245   1.429       .  S
C923        H929   1.081       .  S
C924        H926   1.081       .  S
N925        C927   1.355       .  A
N925       C1165   1.430       .  S
C927        H928   1.082       .  S
C932        C934   1.537       .  S
C932        C936   1.544       .  S
C932        C935   1.532       .  S
C932       C1018   1.542       .  S
C933        C937   1.540       .  S
C933        C939   1.529       .  S
C933        C938   1.545       .  S
C933       C1037   1.543       .  S
C934        C942   1.373       .  A
C934        C937   1.399       .  A
C935        C946   1.373       .  A
C935        C938   1.396       .  A
C936        C950   1.379       .  A
C936        C939   1.396       .  A
C937        C940   1.375       .  A
C938        C944   1.379       .  A
C939        C947   1.371       .  A
C940        H953   1.081       .  S
C940        N941   1.352       .  A
N941        C942   1.351       .  A
N941       C1005   1.423       .  S
C942        H943   1.081       .  S
C944        H954   1.081       .  S
C944        N945   1.359       .  A
N945        C946   1.356       .  A
N945       C1197   1.438       .  S
C946        H952   1.081       .  S
C947        H949   1.082       .  S
C947        N948   1.354       .  A
N948        C950   1.356       .  A
N948       C1133   1.429       .  S
C950        H951   1.081       .  S
Zn955       O960   2.009       .  S
Zn955       O964   1.980       .  S
Zn955       O971   2.005       .  S
Zn956       O961   2.012       .  S
Zn956       O963   2.017       .  S
Zn956       O967   1.981       .  S
Zn956       O959   1.948       .  S
Zn957       O962   1.983       .  S
Zn957       O965   2.012       .  S
Zn957       O968   2.003       .  S
Zn958       O966   2.022       .  S
Zn958       O969   2.000       .  S
Zn958       O970   2.026       .  S
Zn958       O959   1.957       .  S
O961        C973   1.270       .  A
O962        C974   1.270       .  A
O963        C972   1.273       .  A
O964        C974   1.270       .  A
O966        C975   1.274       .  A
O967        C976   1.271       .  A
O969        C976   1.273       .  A
O970        C977   1.274       .  A
C972       C1434   1.490       .  S
C973       C1290   1.495       .  S
C974        C997   1.449       .  S
C975       C1117   1.494       .  S
C976        C999   1.453       .  S
C977       C1053   1.497       .  S
Zn978       O983   1.994       .  S
Zn978       O987   1.977       .  S
Zn978       O994   2.003       .  S
Zn978       O982   1.944       .  S
Zn979       O984   1.995       .  S
Zn979       O986   1.994       .  S
Zn979       O990   1.988       .  S
Zn979       O982   1.947       .  S
Zn980       O985   1.987       .  S
Zn980       O988   2.014       .  S
Zn980       O991   2.009       .  S
Zn980       O982   1.946       .  S
Zn981       O989   2.020       .  S
Zn981       O992   1.990       .  S
Zn981       O993   2.018       .  S
Zn981       O982   1.943       .  S
O983        C995   1.271       .  A
O984        C996   1.271       .  A
O985        C997   1.271       .  A
O986        C995   1.269       .  A
O987        C997   1.270       .  A
O988        C996   1.271       .  A
O989        C998   1.275       .  A
O990        C999   1.271       .  A
O991        C998   1.271       .  A
O992        C999   1.272       .  A
O993       C1000   1.274       .  A
O994       C1000   1.269       .  A
C995       C1002   1.474       .  S
C996       C1069   1.492       .  S
C998       C1210   1.495       .  S
C1000      C1354   1.493       .  S
C1001      C1002   1.405       .  A
C1001      C1006   1.396       .  A
C1001      H1008   1.084       .  S
C1002      C1003   1.419       .  A
C1003      C1010   1.508       .  S
C1003      C1004   1.401       .  A
C1004      C1005   1.397       .  A
C1004      H1009   1.084       .  S
C1005      C1006   1.404       .  A
C1006      C1007   1.504       .  S
C1007      H1011   1.111       .  S
C1007      H1012   1.110       .  S
C1007      H1013   1.107       .  S
C1010      H1014   1.109       .  S
C1010      H1015   1.111       .  S
C1010      H1016   1.111       .  S
C1017      C1018   1.406       .  A
C1017      C1022   1.407       .  A
C1017      H1024   1.081       .  S
C1018      C1019   1.422       .  A
C1019      C1026   1.507       .  S
C1019      C1020   1.404       .  A
C1020      C1021   1.407       .  A
C1020      H1025   1.082       .  S
C1021      C1022   1.426       .  A
C1022      C1023   1.510       .  S
C1023      H1027   1.110       .  S
C1023      H1028   1.111       .  S
C1023      H1029   1.105       .  S
C1026      H1030   1.109       .  S
C1026      H1031   1.105       .  S
C1026      H1032   1.111       .  S
C1033      C1034   1.407       .  A
C1033      C1038   1.407       .  A
C1033      H1040   1.081       .  S
C1034      C1035   1.424       .  A
C1035      C1042   1.510       .  S
C1035      C1036   1.406       .  A
C1036      C1037   1.407       .  A
C1036      H1041   1.081       .  S
C1037      C1038   1.425       .  A
C1038      C1039   1.510       .  S
C1039      H1043   1.111       .  S
C1039      H1044   1.110       .  S
C1039      H1045   1.105       .  S
C1042      H1046   1.110       .  S
C1042      H1047   1.105       .  S
C1042      H1048   1.111       .  S
C1049      C1054   1.404       .  A
C1049      H1056   1.084       .  S
C1050      C1051   1.409       .  A
C1051      C1058   1.507       .  S
C1051      C1052   1.404       .  A
C1052      C1053   1.411       .  A
C1052      H1057   1.083       .  S
C1054      C1055   1.509       .  S
C1055      H1059   1.111       .  S
C1055      H1061   1.110       .  S
C1058      H1062   1.108       .  S
C1058      H1064   1.111       .  S
C1065      C1066   1.402       .  A
C1065      C1070   1.403       .  A
C1065      H1072   1.083       .  S
C1066      C1067   1.411       .  A
C1067      C1074   1.508       .  S
C1067      C1068   1.401       .  A
C1068      C1069   1.410       .  A
C1068      H1073   1.084       .  S
C1069      C1070   1.421       .  A
C1070      C1071   1.509       .  S
C1071      H1075   1.111       .  S
C1071      H1076   1.110       .  S
C1071      H1077   1.111       .  S
C1074      H1078   1.107       .  S
C1074      H1079   1.110       .  S
C1074      H1080   1.111       .  S
C1081      C1082   1.410       .  A
C1081      C1086   1.404       .  A
C1081      H1088   1.080       .  S
C1082      C1083   1.422       .  A
C1083      C1090   1.510       .  S
C1083      C1084   1.406       .  A
C1084      C1085   1.408       .  A
C1084      H1089   1.079       .  S
C1085      C1086   1.422       .  A
C1086      C1087   1.511       .  S
C1087      H1091   1.111       .  S
C1087      H1092   1.103       .  S
C1087      H1093   1.110       .  S
C1090      H1094   1.111       .  S
C1090      H1095   1.103       .  S
C1090      H1096   1.110       .  S
C1097      C1098   1.406       .  A
C1097      C1102   1.405       .  A
C1097      H1104   1.079       .  S
C1098      C1099   1.421       .  A
C1099      C1106   1.510       .  S
C1099      C1100   1.406       .  A
C1100      C1101   1.410       .  A
C1100      H1105   1.079       .  S
C1101      C1102   1.425       .  A
C1102      C1103   1.511       .  S
C1103      H1107   1.111       .  S
C1103      H1108   1.110       .  S
C1103      H1109   1.103       .  S
C1106      H1110   1.110       .  S
C1106      H1111   1.104       .  S
C1106      H1112   1.110       .  S
C1113      C1114   1.398       .  A
C1113      C1118   1.403       .  A
C1113      H1120   1.084       .  S
C1115      C1122   1.506       .  S
C1115      C1116   1.403       .  A
C1116      C1117   1.410       .  A
C1116      H1121   1.083       .  S
C1118      C1119   1.509       .  S
C1119      H1123   1.111       .  S
C1119      H1124   1.110       .  S
C1119      H1125   1.110       .  S
C1122      H1126   1.111       .  S
C1122      H1127   1.108       .  S
C1122      H1128   1.111       .  S
C1129      C1130   1.408       .  A
C1129      C1134   1.401       .  A
C1129      H1136   1.084       .  S
C1130      C1131   1.422       .  A
C1131      C1138   1.510   1_545  S
C1131      C1132   1.399       .  A
C1132      C1133   1.397       .  A
C1132      H1137   1.083       .  S
C1133      C1134   1.406       .  A
C1134      C1135   1.505       .  S
C1135      H1139   1.111       .  S
C1135      H1140   1.110       .  S
C1135      H1141   1.109       .  S
C1138      H1142   1.110       .  S
C1138      H1143   1.110       .  S
C1138      H1144   1.111       .  S
C1145      C1146   1.408       .  A
C1145      C1150   1.402       .  A
C1145      H1152   1.084       .  S
C1146      C1147   1.422       .  A
C1147      C1154   1.509       .  S
C1147      C1148   1.404       .  A
C1148      C1149   1.397       .  A
C1148      H1153   1.083       .  S
C1149      C1150   1.405       .  A
C1150      C1151   1.505       .  S
C1151      H1155   1.110   1_455  S
C1151      H1156   1.110       .  S
C1151      H1157   1.111       .  S
C1154      H1158   1.110       .  S
C1154      H1159   1.110       .  S
C1154      H1160   1.111       .  S
C1161      C1162   1.412       .  A
C1161      C1166   1.402       .  A
C1161      H1168   1.083       .  S
C1163      C1170   1.510       .  S
C1163      C1164   1.399       .  A
C1164      H1169   1.084       .  S
C1165      C1166   1.405       .  A
C1166      C1167   1.506       .  S
C1167      H1171   1.111       .  S
C1167      H1173   1.109       .  S
C1170      H1174   1.110       .  S
C1170      H1176   1.111   1_545  S
C1177      C1182   1.401       .  A
C1177      H1184   1.084   1_455  S
C1178      C1179   1.421       .  A
C1179      C1186   1.509       .  S
C1179      C1180   1.404       .  A
C1180      H1185   1.084       .  S
C1181      C1182   1.405   1_556  A
C1182      C1183   1.506       .  S
C1183      H1187   1.111   1_455  S
C1183      H1189   1.111       .  S
C1186      H1190   1.110       .  S
C1186      H1192   1.111       .  S
C1193      C1194   1.401       .  A
C1193      C1198   1.401       .  A
C1193      H1200   1.083       .  S
C1194      C1195   1.414   1_565  A
C1195      C1202   1.507       .  S
C1195      C1196   1.403       .  A
C1196      C1197   1.403       .  A
C1196      H1201   1.083       .  S
C1197      C1198   1.414   1_545  A
C1198      C1199   1.507       .  S
C1199      H1203   1.111       .  S
C1199      H1204   1.110       .  S
C1199      H1205   1.107       .  S
C1202      H1206   1.108   1_545  S
C1202      H1207   1.110       .  S
C1202      H1208   1.111       .  S
C1209      C1210   1.410       .  A
C1209      C1214   1.403       .  A
C1209      H1216   1.084       .  S
C1210      C1211   1.425       .  A
C1211      C1218   1.509       .  S
C1211      C1212   1.405       .  A
C1212      C1213   1.399       .  A
C1212      H1217   1.084       .  S
C1213      C1214   1.406       .  A
C1214      C1215   1.504       .  S
C1215      H1219   1.111       .  S
C1215      H1220   1.110       .  S
C1215      H1221   1.107       .  S
C1218      H1222   1.110       .  S
C1218      H1223   1.110       .  S
C1218      H1224   1.111       .  S
C1225      C1226   1.410       .  A
C1225      C1230   1.405       .  A
C1225      H1232   1.084       .  S
C1226      C1227   1.424       .  A
C1227      C1234   1.510       .  S
C1227      C1228   1.403       .  A
C1228      C1229   1.400       .  A
C1228      H1233   1.083       .  S
C1229      C1230   1.411       .  A
C1230      C1231   1.507       .  S
C1231      H1235   1.111       .  S
C1231      H1236   1.110       .  S
C1231      H1237   1.107       .  S
C1234      H1238   1.110       .  S
C1234      H1239   1.110   1_565  S
C1234      H1240   1.111   1_565  S
C1241      C1246   1.401       .  A
C1241      H1248   1.084       .  S
C1242      C1243   1.411       .  A
C1243      C1250   1.506       .  S
C1243      C1244   1.401       .  A
C1244      C1245   1.400   1_565  A
C1244      H1249   1.084       .  S
C1246      C1247   1.506       .  S
C1247      H1251   1.111       .  S
C1247      H1252   1.110       .  S
C1247      H1253   1.109       .  S
C1250      H1254   1.108       .  S
C1250      H1255   1.110       .  S
C1250      H1256   1.111       .  S
C1257      C1258   1.407       .  A
C1257      C1262   1.405       .  A
C1257      H1264   1.083       .  S
C1258      C1259   1.424       .  A
C1259      C1266   1.509       .  S
C1259      C1260   1.409       .  A
C1260      C1261   1.409       .  A
C1260      H1265   1.081       .  S
C1261      C1262   1.423       .  A
C1262      C1263   1.507       .  S
C1263      H1267   1.111       .  S
C1263      H1268   1.109       .  S
C1263      H1269   1.105       .  S
C1266      H1270   1.110       .  S
C1266      H1271   1.105       .  S
C1266      H1272   1.111       .  S
C1273      C1274   1.409       .  A
C1273      C1278   1.406       .  A
C1273      H1280   1.083       .  S
C1274      C1275   1.423       .  A
C1275      C1282   1.509       .  S
C1275      C1276   1.408       .  A
C1276      C1277   1.410       .  A
C1276      H1281   1.082       .  S
C1277      C1278   1.421       .  A
C1278      C1279   1.507       .  S
C1279      H1283   1.111       .  S
C1279      H1284   1.108       .  S
C1279      H1285   1.105       .  S
C1282      H1286   1.110       .  S
C1282      H1287   1.105       .  S
C1282      H1288   1.111       .  S
C1289      C1290   1.409       .  A
C1289      C1294   1.402       .  A
C1289      H1296   1.084       .  S
C1291      C1298   1.509       .  S
C1291      C1292   1.405       .  A
C1292      H1297   1.084       .  S
C1293      C1294   1.410       .  A
C1294      C1295   1.508       .  S
C1295      H1299   1.111       .  S
C1295      H1301   1.111       .  S
C1298      H1302   1.110       .  S
C1298      H1304   1.111       .  S
C1305      C1310   1.398       .  A
C1305      H1312   1.084       .  S
C1306      C1307   1.421       .  A
C1307      C1314   1.508       .  S
C1307      C1308   1.404       .  A
C1308      C1309   1.398       .  A
C1308      H1313   1.084       .  S
C1310      C1311   1.504       .  S
C1311      H1315   1.111   1_565  S
C1311      H1317   1.106       .  S
C1314      H1318   1.109       .  S
C1314      H1320   1.111       .  S
C1321      C1322   1.403       .  A
C1321      C1326   1.404       .  A
C1321      H1328   1.084       .  S
C1322      C1323   1.411       .  A
C1323      C1330   1.506   1_655  S
C1323      C1324   1.403   1_655  A
C1324      C1325   1.405       .  A
C1324      H1329   1.083       .  S
C1325      C1326   1.413   1_455  A
C1326      C1327   1.506       .  S
C1327      H1331   1.111       .  S
C1327      H1332   1.108       .  S
C1327      H1333   1.110       .  S
C1330      H1334   1.110       .  S
C1330      H1335   1.108   1_455  S
C1330      H1336   1.111       .  S
C1337      C1338   1.410       .  A
C1337      C1342   1.404       .  A
C1337      H1344   1.083       .  S
C1338      C1339   1.425       .  A
C1339      C1346   1.509       .  S
C1339      C1340   1.405       .  A
C1340      C1341   1.398       .  A
C1340      H1345   1.084       .  S
C1341      C1342   1.409       .  A
C1342      C1343   1.507       .  S
C1343      H1347   1.111   1_655  S
C1343      H1348   1.108       .  S
C1343      H1349   1.111       .  S
C1346      H1350   1.110       .  S
C1346      H1351   1.110       .  S
C1346      H1352   1.111       .  S
C1353      C1354   1.407       .  A
C1353      C1358   1.401       .  A
C1353      H1360   1.084       .  S
C1354      C1355   1.424       .  A
C1355      C1362   1.509       .  S
C1355      C1356   1.406       .  A
C1356      C1357   1.399       .  A
C1356      H1361   1.084       .  S
C1357      C1358   1.411       .  A
C1358      C1359   1.507       .  S
C1359      H1363   1.111       .  S
C1359      H1364   1.108       .  S
C1359      H1365   1.110       .  S
C1362      H1366   1.110       .  S
C1362      H1367   1.110       .  S
C1362      H1368   1.111       .  S
C1369      C1374   1.406       .  A
C1369      H1376   1.084       .  S
C1370      C1371   1.418       .  A
C1371      C1378   1.508   1_455  S
C1371      C1372   1.403   1_455  A
C1372      C1373   1.400       .  A
C1372      H1377   1.084       .  S
C1374      C1375   1.505       .  S
C1375      H1379   1.111       .  S
C1375      H1380   1.108       .  S
C1375      H1381   1.110       .  S
C1378      H1382   1.110       .  S
C1378      H1383   1.107   1_655  S
C1378      H1384   1.111       .  S
C1385      C1386   1.410       .  A
C1385      C1390   1.406       .  A
C1385      H1392   1.079       .  S
C1386      C1387   1.423       .  A
C1387      C1394   1.511       .  S
C1387      C1388   1.404       .  A
C1388      C1389   1.408       .  A
C1388      H1393   1.080       .  S
C1389      C1390   1.421       .  A
C1390      C1391   1.510       .  S
C1391      H1395   1.111       .  S
C1391      H1396   1.110       .  S
C1391      H1397   1.104       .  S
C1394      H1398   1.103       .  S
C1394      H1399   1.111       .  S
C1394      H1400   1.110       .  S
C1401      C1402   1.409       .  A
C1401      C1406   1.406       .  A
C1401      H1408   1.080       .  S
C1402      C1403   1.425       .  A
C1403      C1410   1.512       .  S
C1403      C1404   1.404       .  A
C1404      C1405   1.406       .  A
C1404      H1409   1.080       .  S
C1405      C1406   1.423       .  A
C1406      C1407   1.510       .  S
C1407      H1411   1.110       .  S
C1407      H1412   1.111       .  S
C1407      H1413   1.104       .  S
C1410      H1414   1.103       .  S
C1410      H1415   1.110       .  S
C1410      H1416   1.111       .  S
C1417      C1418   1.411       .  A
C1417      C1422   1.408       .  A
C1417      H1424   1.083       .  S
C1419      C1426   1.509       .  S
C1419      C1420   1.404       .  A
C1420      H1425   1.083       .  S
C1421      C1422   1.411       .  A
C1422      C1423   1.506       .  S
C1423      H1427   1.111       .  S
C1423      H1429   1.110       .  S
C1426      H1430   1.110   1_655  S
C1426      H1432   1.111   1_655  S
C1433      C1438   1.403       .  A
C1433      H1440   1.084       .  S
C1434      C1435   1.422       .  A
C1435      C1442   1.508       .  S
C1435      C1436   1.404       .  A
C1436      C1437   1.398       .  A
C1436      H1441   1.084       .  S
C1438      C1439   1.506       .  S
C1439      H1443   1.111       .  S
C1439      H1444   1.111       .  S
C1442      H1447   1.110       .  S
C1442      H1448   1.111       .  S
