geometry optimzed in LAMMPS
_audit_creation_date              2020-11-30 
_audit_creation_method            'lammps2cif' 
_symmetry_space_group_name_H-M    'P1' 
_symmetry_Int_Tables_number       1 
_symmetry_cell_setting            triclinic 
loop_ 
_symmetry_equiv_pos_as_xyz 
  x,y,z 
_cell_length_a                    36.54507535 
_cell_length_b                    36.71165146873525 
_cell_length_c                    34.15225567312344 
_cell_angle_alpha                 89.57646555423841 
_cell_angle_beta                  90.13711586362481 
_cell_angle_gamma                 120.27936907659729 
loop_ 
_atom_site_label 
_atom_site_type_symbol 
_atom_site_fract_x 
_atom_site_fract_y 
_atom_site_fract_z 
_atom_site_charge 
C1          C  0.49652025  0.99760362  0.78699809     0.45900
H2          H  0.49514659  0.99423935  0.81926321    -0.03100
C3          C  0.00050854  0.50615199  0.71149388     0.45900
H4          H  0.00244237  0.50945372  0.67923151    -0.03100
C5          C  0.45828416  0.46097932  0.76543407    -0.16800
C6          C  0.49705503  0.03764547  0.77361975    -0.16600
C7          C  0.03727135  0.50134590  0.76929942    -0.17000
C8          C  0.46098340  0.46494302  0.72518150    -0.17000
C9          C  0.99901122  0.04243478  0.73363755    -0.16500
C10         C  0.03868806  0.00423682  0.72886407    -0.16800
O11         O  0.24347364  0.14046957  0.04773713    -0.78100
C12         C  0.25137889  0.07932160  0.93836035     0.83000
O13         O  0.35928684  0.10685059  0.05013018    -0.79200
O14         O  0.39141875  0.17844221  0.92001120    -0.80700
O15         O  0.32878439  0.25242670  0.97325749    -0.80500
O16         O  0.28909230  0.20921572  0.05487866    -0.79100
Zn17       Zn  0.27867909  0.12050098  0.01876995     1.55700
O18         O  0.32126168  0.21604683  0.91869680    -0.80500
Cd19       Cd  0.33768172  0.22067796  0.01833346     1.59700
Cd20       Cd  0.37898096  0.16252384  0.01966727     1.59600
O21         O  0.39496423  0.25809675  0.04662002    -0.80500
O22         O  0.33088754  0.16705638  0.99856070    -1.91000
Cd23       Cd  0.33179593  0.16778790  0.93944858     1.59900
O24         O  0.41765839  0.21239816  0.05437952    -0.80400
O25         O  0.28252164  0.10910693  0.91960405    -0.79100
C26         C  0.32209727  0.07955135  0.06136112     0.83400
C27         C  0.25285948  0.17677213  0.06042451     0.83100
O28         O  0.24597449  0.08161728  0.97488227    -0.78100
C29         C  0.32103776  0.24635342  0.93678469     0.83900
O30         O  0.29001591  0.08318766  0.05351587    -0.78100
C31         C  0.42194564  0.24862044  0.05935466     0.84000
C32         C  0.42152444  0.17779738  0.93873472     0.84400
O33         O  0.41929890  0.16970592  0.97520212    -0.80600
C34         C  0.33102034  0.33211135  0.86820582     0.03500
C35         C  0.33144573  0.29581329  0.88133774    -0.12600
C36         C  0.31093229  0.27571246  0.91617248     0.01000
C37         C  0.28474777  0.28806487  0.93475148    -0.11100
C38         C  0.27901964  0.32024093  0.91908314     0.03500
C39         C  0.30288945  0.34287585  0.88618854    -0.10500
H40         H  0.35022641  0.28510870  0.86628938     0.09100
H41         H  0.26859089  0.27239934  0.96167470     0.06700
H42         H  0.30137987  0.37015807  0.87619187     0.06500
O43         O  0.16819454  0.42103978  0.97517041    -0.78100
C44         C  0.07756324  0.32397429  0.06256204     0.83000
O45         O  0.25552126  0.39936613  0.05348285    -0.79200
O46         O  0.14298019  0.24857288  0.05319717    -0.80700
O47         O  0.10816773  0.28402554  0.92378978    -0.80500
O48         O  0.17565000  0.39268487  0.92033619    -0.79100
Zn49       Zn  0.16066662  0.38221275  0.02026565     1.55700
O50         O  0.08026205  0.24767182  0.97921350    -0.80500
Cd51       Cd  0.16714235  0.33501245  0.94236284     1.59700
Cd52       Cd  0.22254109  0.34400657  0.02169248     1.59600
O53         O  0.21744759  0.32722594  0.92260747    -0.80500
O54         O  0.16804849  0.33673162  0.00147569    -1.91000
Cd55       Cd  0.12125595  0.28278342  0.02302606     1.59900
O56         O  0.25781310  0.34063957  0.97601586    -0.80400
O57         O  0.08241077  0.29229038  0.05884957    -0.79100
C58         C  0.24401191  0.42518690  0.06464527     0.83400
C59         C  0.17542266  0.42294328  0.93849207     0.83100
O60         O  0.10397228  0.36019484  0.04838804    -0.78100
C61         C  0.07825029  0.25293031  0.94257557     0.83900
O62         O  0.20790170  0.42024806  0.05602651    -0.78100
C63         C  0.25036140  0.33110376  0.93988438     0.84000
C64         C  0.18008761  0.25803937  0.06406226     0.84400
O65         O  0.21257605  0.29369809  0.05641805    -0.80600
C66         C  0.15899270  0.16085674  0.12109106     0.03500
C67         C  0.19025513  0.15374074  0.10494690    -0.12600
C68         C  0.22044398  0.18323677  0.07904809     0.01000
C69         C  0.21847329  0.21908380  0.06831074    -0.11100
C70         C  0.18627791  0.22532761  0.08250280     0.03500
C71         C  0.15757008  0.19709589  0.11004347    -0.10500
H72         H  0.19119856  0.12553665  0.11266801     0.09100
H73         H  0.24041341  0.24077441  0.04659104     0.06700
H74         H  0.13433589  0.20351810  0.12274987     0.06500
C75         C  0.16579473  0.50018915  0.87076072     0.03500
C76         C  0.19683781  0.03889209  0.88684584    -0.12600
C77         C  0.22160087  0.03956728  0.91853464     0.01000
C78         C  0.21456769  0.50127837  0.93461498    -0.11100
C79         C  0.18538098  0.46251283  0.91776564     0.03500
C80         C  0.16279678  0.46236257  0.88446196    -0.10500
H81         H  0.19962873  0.06822343  0.87669289     0.09100
H82         H  0.23185419  0.50162113  0.96060457     0.06700
H83         H  0.14056072  0.43258414  0.87119965     0.06500
C84         C  0.49934995  0.33725853  0.12468852     0.03500
C85         C  0.03789489  0.34188419  0.11096494    -0.12600
C86         C  0.03804973  0.31682430  0.08055684     0.01000
C87         C  0.49958553  0.28514697  0.06540385    -0.11100
C88         C  0.46113481  0.28081033  0.07792551     0.03500
C89         C  0.46113686  0.30784471  0.10658775    -0.10500
H90         H  0.06783933  0.36513175  0.12361377     0.09100
H91         H  0.49971696  0.26526922  0.04210762     0.06700
H92         H  0.43152797  0.30565920  0.11500873     0.06500
C93         C  0.49963419  0.16479487  0.87674231     0.03500
C94         C  0.46145077  0.16215729  0.88876240    -0.12600
C95         C  0.46136100  0.18754761  0.91905585     0.01000
C96         C  0.50004714  0.21790076  0.93559489    -0.11100
C97         C  0.03861480  0.22269827  0.92249742     0.03500
C98         C  0.03807483  0.19506113  0.89418553    -0.10500
H99         H  0.43151411  0.13847022  0.87644737     0.09100
H100        H  0.50000602  0.23713999  0.95953956     0.06700
H101        H  0.06744147  0.19611816  0.88694688     0.06500
C102        C  0.33784972  0.50328802  0.12481363     0.03500
C103        C  0.34476726  0.04106393  0.10730204    -0.12600
C104        C  0.31494310  0.04089059  0.08132886     0.03200
C105        C  0.27956086  0.50249278  0.07075504    -0.11100
C106        C  0.27474472  0.46431932  0.08439419     0.03500
C107        C  0.30290437  0.46478662  0.11245255    -0.10500
H108        H  0.37374064  0.07037927  0.11284541     0.09100
H109        H  0.25788673  0.50214388  0.04879634     0.06700
H110        H  0.29804361  0.43504967  0.12386577     0.06500
O111        O  0.41690004  0.16263868  0.52420112    -0.78100
C112        C  0.32016902  0.07284939  0.43688703     0.83000
O113        O  0.39485732  0.24965002  0.44694248    -0.79200
O114        O  0.24265914  0.13586096  0.45086202    -0.80700
O115        O  0.28087685  0.10119904  0.57935756    -0.80500
O116        O  0.38888356  0.17095536  0.57915830    -0.79100
Zn117      Zn  0.37822374  0.15508690  0.47923994     1.55700
O118        O  0.24411230  0.07211427  0.52477930    -0.80500
Cd119      Cd  0.33014781  0.16025723  0.55845932     1.59700
Cd120      Cd  0.33924764  0.21496833  0.47870351     1.59600
O121        O  0.32092326  0.20955111  0.57755670    -0.80500
O122        O  0.33199644  0.16087475  0.49932536    -1.91000
Cd123      Cd  0.27757071  0.11372690  0.47972346     1.59900
O124        O  0.33430425  0.24932922  0.52360642    -0.80400
O125        O  0.28782867  0.07654189  0.44247968    -0.79100
C126        C  0.42127295  0.23906708  0.43526095     0.83400
C127        C  0.41919258  0.17077118  0.56067908     0.83100
O128        O  0.35670492  0.09946095  0.45023688    -0.78100
C129        C  0.25004492  0.07051257  0.56141640     0.83900
O130        O  0.41674622  0.20314688  0.44350013    -0.78100
C131        C  0.32459389  0.24205503  0.55974903     0.84000
C132        C  0.25303808  0.17266144  0.43832441     0.84400
O133        O  0.28951688  0.20458254  0.44393482    -0.80600
C134        C  0.33637873  0.32992615  0.62587750     0.03500
C135        C  0.34260619  0.29828819  0.60959273    -0.12600
C136        C  0.31547211  0.27176615  0.58039036     0.01000
C137        C  0.28279920  0.27790803  0.56643104    -0.11100
C138        C  0.27579330  0.30906692  0.58230543     0.03500
C139        C  0.30194998  0.33421325  0.61275005    -0.10500
H140        H  0.37047077  0.29652470  0.61699126     0.09100
H141        H  0.26354853  0.25920533  0.54206832     0.06700
H142        H  0.29768268  0.35935604  0.62400233     0.06500
O143        O  0.13932080  0.24160106  0.44989587    -0.78100
C144        C  0.07602950  0.24591241  0.55736282     0.83000
O145        O  0.10300772  0.35536657  0.44919590    -0.79200
O146        O  0.17250812  0.38430336  0.57961103    -0.80700
O147        O  0.25297472  0.32820293  0.52552832    -0.80500
O148        O  0.20899034  0.28563277  0.44525016    -0.79100
Zn149      Zn  0.11856511  0.27599770  0.47808165     1.55700
O150        O  0.21440410  0.31724817  0.57964537    -0.80500
Cd151      Cd  0.21937208  0.33470764  0.48031531     1.59700
Cd152      Cd  0.15875201  0.37490348  0.47992297     1.59600
O153        O  0.25507322  0.39128505  0.45051107    -0.80500
O154        O  0.16478151  0.32724289  0.49976001    -1.91000
Cd155      Cd  0.16483228  0.32648600  0.55880988     1.59900
O156        O  0.20920603  0.41435525  0.44558322    -0.80400
O157        O  0.10596066  0.27585044  0.57681204    -0.79100
C158        C  0.07652477  0.31871747  0.43670913     0.83400
C159        C  0.17609930  0.25010535  0.43881859     0.83100
O160        O  0.07848674  0.24202308  0.52067182    -0.78100
C161        C  0.24622484  0.31927293  0.56185573     0.83900
O162        O  0.08119821  0.28712046  0.44310996    -0.78100
C163        C  0.24530861  0.41840084  0.43898162     0.84000
C164        C  0.17101804  0.41438833  0.56177090     0.84400
O165        O  0.16374820  0.41337060  0.52522579    -0.80600
C166        C  0.16255969  0.99198611  0.62922614     0.03500
C167        C  0.15525341  0.45356793  0.61309623    -0.12600
C168        C  0.18074239  0.45354194  0.58241568     0.01000
C169        C  0.21249122  0.99220196  0.56677095    -0.11100
C170        C  0.22059903  0.03078064  0.58246765     0.03500
C171        C  0.19656430  0.03040768  0.61456063    -0.10500
H172        H  0.12779375  0.42405604  0.62177206     0.09100
H173        H  0.23042526  0.99227123  0.54147807     0.06700
H174        H  0.20198685  0.06019528  0.62598664     0.06500
C175        C  0.49856494  0.16948466  0.63273680     0.03500
C176        C  0.46028957  0.16532387  0.61762148    -0.12600
C177        C  0.45940805  0.18204729  0.58075814     0.01000
C178        C  0.49759088  0.20828697  0.56121562    -0.11100
C179        C  0.03603590  0.21607383  0.57706995     0.03500
C180        C  0.03593058  0.19421064  0.61060802    -0.10500
H181        H  0.43043154  0.14734151  0.63260074     0.09100
H182        H  0.49734702  0.22298212  0.53362174     0.06700
H183        H  0.06521383  0.19536299  0.61733285     0.06500
C184        C  0.49884488  0.33384972  0.37448301     0.03500
C185        C  0.46037770  0.29888560  0.38751149    -0.12600
C186        C  0.46041547  0.27056502  0.41525023     0.01000
C187        C  0.49908126  0.27570848  0.42817908    -0.11100
C188        C  0.03739778  0.31136109  0.41728076     0.03500
C189        C  0.03701856  0.34109199  0.39157051    -0.10500
H190        H  0.43034950  0.29394764  0.37663994     0.09100
H191        H  0.49917324  0.25401611  0.44987219     0.06700
H192        H  0.06629991  0.37011255  0.38565601     0.06500
C193        C  0.15699646  0.15438166  0.38121786     0.03500
C194        C  0.15169998  0.18718119  0.39574591    -0.12600
C195        C  0.18190671  0.21715443  0.42095171     0.01000
C196        C  0.21678355  0.21359664  0.43238887    -0.11100
C197        C  0.22096430  0.17971362  0.41984451     0.03500
C198        C  0.19200054  0.15105629  0.39317247    -0.10500
H199        H  0.12419865  0.18934041  0.38747996     0.09100
H200        H  0.23909133  0.23553296  0.45351468     0.06700
H201        H  0.19627734  0.12576732  0.38234795     0.06500
C202        C  0.33594323  0.49641637  0.37490164     0.03500
C203        C  0.34021151  0.03462924  0.38860390    -0.12600
C204        C  0.31341486  0.03414870  0.41795710     0.01000
C205        C  0.28072390  0.49549827  0.43201229    -0.11100
C206        C  0.27727443  0.45755214  0.42001694     0.03500
C207        C  0.30582670  0.45814460  0.39248730    -0.10500
H208        H  0.36452266  0.06466674  0.37683405     0.09100
H209        H  0.25977821  0.49512177  0.45468196     0.06700
H210        H  0.30494697  0.42904603  0.38541956     0.06500
C211        C  0.50004476  0.49843663  0.21186947     0.45900
H212        H  0.50037270  0.49870059  0.17947853    -0.03100
C213        C  0.49856555  0.49825806  0.28748047     0.45900
H214        H  0.49821278  0.49784639  0.31987037    -0.03100
C215        C  0.03885662  0.03663649  0.22973173    -0.16800
C216        C  0.46117118  0.49853875  0.22884339    -0.16600
C217        C  0.49974747  0.46006701  0.23010142    -0.17000
C218        C  0.03783761  0.03672111  0.26992078    -0.17000
C219        C  0.46110050  0.49974344  0.26908945    -0.16500
C220        C  0.49762983  0.45921269  0.27030825    -0.16800
C221        C  0.38547071  0.97207918  0.28787878    -0.19900
C222        C  0.42854319  0.50143239  0.29392640    -0.06500
C223        C  0.43999054  0.53091593  0.32465334     0.14400
C224        C  0.40913735  0.52729058  0.35080010    -0.19900
C225        C  0.36632271  0.49739957  0.34559684    -0.06500
C226        C  0.35400872  0.97075073  0.31242663     0.14400
C227        C  0.30817504  0.94261686  0.30130643    -0.23300
H228        H  0.37639884  0.95000003  0.26391763     0.15700
H229        H  0.41874035  0.54834256  0.37564623     0.15700
C230        C  0.48388649  0.56814726  0.32915183    -0.23200
H231        H  0.29173559  0.91620191  0.32236749     0.05900
H232        H  0.29200346  0.96134546  0.30013453     0.09200
H233        H  0.30514191  0.42833872  0.27202750     0.09200
H234        H  0.49481136  0.08423485  0.30055366     0.09100
H235        H  0.50562556  0.55817235  0.34091192     0.09100
H236        H  0.48473871  0.59163246  0.35002192     0.05900
C237        C  0.11492762  0.13975993  0.32059105    -0.19900
C238        C  0.12623482  0.12396780  0.35312223    -0.06500
C239        C  0.10847682  0.07991768  0.35764536     0.14400
C240        C  0.08267243  0.05338794  0.32808146    -0.19900
C241        C  0.07010232  0.06885455  0.29621721    -0.06500
C242        C  0.08548791  0.11276514  0.29307707     0.14400
C243        C  0.07008453  0.13247166  0.26327123    -0.23300
H244        H  0.12807424  0.17351090  0.31732737     0.15700
H245        H  0.07052058  0.01975234  0.33099498     0.15700
C246        C  0.11359181  0.05926313  0.39400163    -0.23200
H247        H  0.05988280  0.15254295  0.27843696     0.05900
H248        H  0.04231545  0.10900999  0.24653866     0.09200
H249        H  0.09618558  0.15260702  0.24273419     0.09200
H250        H  0.12888263  0.08144738  0.41850367     0.09100
H251        H  0.13224860  0.04388400  0.38694583     0.09100
H252        H  0.08185935  0.03481432  0.40480742     0.05900
C253        C  0.46805794  0.37702989  0.35122127    -0.19900
C254        C  0.49849370  0.36483168  0.34616907    -0.06500
C255        C  0.02663000  0.38152326  0.31383263     0.14400
C256        C  0.02641722  0.41300386  0.29035110    -0.19900
C257        C  0.49640285  0.42558403  0.29595737    -0.06500
C258        C  0.46552365  0.40572707  0.32573148     0.14400
C259        C  0.42821752  0.41238719  0.32970649    -0.23300
H260        H  0.44577048  0.36387981  0.37530915     0.15700
H261        H  0.04953613  0.42746023  0.26703690     0.15700
C262        C  0.05487435  0.36450616  0.30189646    -0.23200
H263        H  0.40404922  0.38919752  0.35026690     0.05900
H264        H  0.41263260  0.40828587  0.30082927     0.09200
H265        H  0.43825011  0.44399539  0.34152075     0.09200
H266        H  0.03587240  0.32961678  0.29963001     0.09100
H267        H  0.08102309  0.37358522  0.32298841     0.09100
H268        H  0.06973119  0.37705990  0.27285339     0.05900
C269        C  0.41690636  0.02947816  0.20847856    -0.19900
C270        C  0.42860061  0.49886432  0.20291597    -0.06500
C271        C  0.40883860  0.46879425  0.17289521     0.14400
C272        C  0.38099584  0.47247899  0.14729357    -0.19900
C273        C  0.36920681  0.50305739  0.15258316    -0.06500
C274        C  0.38609830  0.03084931  0.18485313     0.14400
C275        C  0.37017458  0.06001687  0.19644030    -0.23300
H276        H  0.43149056  0.05205414  0.23192844     0.15700
H277        H  0.36791883  0.45073690  0.12305236     0.15700
C278        C  0.41441921  0.43099126  0.16884102    -0.23200
H279        H  0.38277446  0.07456741  0.22541960     0.05900
H280        H  0.33512728  0.54204772  0.19864579     0.09200
H281        H  0.38035517  0.08622988  0.17515903     0.09200
H282        H  0.40934235  0.41490083  0.19763664     0.09100
H283        H  0.44611503  0.94033967  0.15709727     0.09100
H284        H  0.39114642  0.40757649  0.14808039     0.05900
C285        C  0.47070821  0.38524123  0.20985367    -0.19900
C286        C  0.50154386  0.42795627  0.20520329    -0.06500
C287        C  0.03318099  0.43960365  0.17621157     0.14400
C288        C  0.03094911  0.40923060  0.15064199    -0.19900
C289        C  0.50000973  0.36662748  0.15468622    -0.06500
C290        C  0.47061003  0.35415692  0.18607738     0.14400
C291        C  0.44004525  0.30875485  0.19662175    -0.23300
H292        H  0.44692040  0.37596113  0.23258616     0.15700
H293        H  0.05359818  0.41924152  0.12681816     0.15700
C294        C  0.07085052  0.48335678  0.17269415    -0.23200
H295        H  0.44379335  0.30342430  0.22807535     0.05900
H296        H  0.44564216  0.28624902  0.17998726     0.09200
H297        H  0.40705146  0.30161156  0.19161101     0.09200
H298        H  0.08533510  0.49389167  0.20189676     0.09100
H299        H  0.06136575  0.00511287  0.15970360     0.09100
H300        H  0.09566471  0.48445762  0.15317143     0.05900
C301        C  0.14334803  0.11758271  0.18143452    -0.19900
C302        C  0.12804441  0.13029688  0.14950928    -0.06500
C303        C  0.08383002  0.11175374  0.14416770     0.14400
C304        C  0.05645910  0.08303882  0.17213299    -0.19900
C305        C  0.07154006  0.06974161  0.20380051    -0.06500
C306        C  0.11578232  0.08629968  0.20773206     0.14400
C307        C  0.13538449  0.07035039  0.23709759    -0.23300
H308        H  0.17724030  0.13097754  0.18495658     0.15700
H309        H  0.02264429  0.07021931  0.16878871     0.15700
C310        C  0.06484769  0.11954572  0.10797632    -0.23200
H311        H  0.15610332  0.06107933  0.22159959     0.05900
H312        H  0.11175980  0.04209730  0.25338218     0.09200
H313        H  0.15497048  0.09571986  0.25816775     0.09200
H314        H  0.07870935  0.11402105  0.08135540     0.09100
H315        H  0.07031606  0.15205143  0.10751227     0.09100
H316        H  0.02999396  0.09796701  0.10673934     0.05900
C317        C  0.43516842  0.40432307  0.81502215    -0.19900
C318        C  0.42318720  0.42497818  0.78789104    -0.06500
C319        C  0.37935878  0.41151361  0.78448498     0.14400
C320        C  0.34995611  0.37936397  0.80940055    -0.19900
C321        C  0.36284057  0.36127131  0.83882971    -0.06500
C322        C  0.40661233  0.37460989  0.84178316     0.14400
C323        C  0.42489325  0.36077310  0.87451736    -0.23300
H324        H  0.46745323  0.41138982  0.81524775     0.15700
H325        H  0.31662497  0.36932921  0.80663717     0.15700
C326        C  0.36177422  0.43020267  0.75599065    -0.23200
H327        H  0.45994792  0.38080573  0.87589317     0.05900
H328        H  0.41802097  0.32811258  0.86989952     0.09200
H329        H  0.41232543  0.36354551  0.90321387     0.09200
H330        H  0.38625527  0.45564446  0.73797532     0.09100
H331        H  0.34483156  0.94342536  0.77223329     0.09100
H332        H  0.33915901  0.40523915  0.73596226     0.05900
C333        C  0.03018965  0.11113229  0.79869074    -0.19900
C334        C  0.49746869  0.06904657  0.80169039    -0.06500
C335        C  0.46543641  0.05839479  0.83014836     0.14400
C336        C  0.46720862  0.09021953  0.85414840    -0.19900
C337        C  0.49867427  0.13289374  0.84923150    -0.06500
C338        C  0.02942287  0.14340929  0.81960350     0.14400
C339        C  0.06008360  0.18816647  0.80707828    -0.23300
H340        H  0.05629508  0.11936681  0.77904528     0.15700
H341        H  0.44379388  0.08151249  0.87711407     0.15700
C342        C  0.42887874  0.01401704  0.83540869    -0.23200
H343        H  0.05575347  0.19143153  0.77542837     0.05900
H344        H  0.09313642  0.19569712  0.81248314     0.09200
H345        H  0.05463524  0.21187938  0.82154315     0.09200
H346        H  0.43988156  0.49303678  0.84691695     0.09100
H347        H  0.41244587  0.00172620  0.80721285     0.09100
H348        H  0.40512285  0.01260781  0.85651807     0.05900
C349        C  0.05970896  0.47618455  0.82774699    -0.19900
C350        C  0.07170315  0.50325430  0.79515520    -0.06500
C351        C  0.11561729  0.03204201  0.78952493     0.14400
C352        C  0.14551073  0.02807560  0.81252011    -0.19900
C353        C  0.13302150  0.49923070  0.84389380    -0.06500
C354        C  0.08923864  0.47434324  0.85259588     0.14400
C355        C  0.07289121  0.44787509  0.88947494    -0.23300
H356        H  0.02687907  0.45686552  0.83497054     0.15700
H357        H  0.17898862  0.04935441  0.80717874     0.15700
C358        C  0.13223675  0.06964825  0.76238581    -0.23200
H359        H  0.03860260  0.43595952  0.89409212     0.05900
H360        H  0.08987159  0.96709503  0.91546569     0.09200
H361        H  0.07657323  0.41979570  0.88782130     0.09200
H362        H  0.10682870  0.07409623  0.74973361     0.09100
H363        H  0.15086588  0.56643723  0.73834211     0.09100
H364        H  0.15319697  0.09877788  0.77900692     0.05900
C365        C  0.38553461  0.40540794  0.63973654    -0.19900
C366        C  0.36969522  0.36330944  0.65099796    -0.06500
C367        C  0.38581505  0.35474341  0.68534370     0.14400
C368        C  0.41759346  0.38852829  0.70679625    -0.19900
C369        C  0.43108401  0.43095931  0.69741100    -0.06500
C370        C  0.41451012  0.43910947  0.66280219     0.14400
C371        C  0.42393700  0.48204666  0.64935294    -0.23300
H372        H  0.37385224  0.41222436  0.61305736     0.15700
H373        H  0.43119392  0.38148860  0.73185786     0.15700
C374        C  0.36811783  0.31050943  0.70108241    -0.23200
H375        H  0.39378699  0.48190821  0.64459677     0.05900
H376        H  0.44185144  0.49041942  0.62136123     0.09200
H377        H  0.44184544  0.00668350  0.67075503     0.09200
H378        H  0.37605701  0.29160157  0.68150224     0.09100
H379        H  0.33318714  0.29518072  0.70417388     0.09100
H380        H  0.38130418  0.31037090  0.73039420     0.05900
C381        C  0.03600508  0.11524832  0.70470628    -0.19900
C382        C  0.49799630  0.07828562  0.71347341    -0.06500
C383        C  0.45975256  0.07761629  0.70547442     0.14400
C384        C  0.46027132  0.10821771  0.68040033    -0.19900
C385        C  0.49863618  0.14337955  0.66737039    -0.06500
C386        C  0.03647596  0.14919675  0.68520355     0.14400
C387        C  0.07699363  0.19122390  0.68786231    -0.23300
H388        H  0.06567394  0.11904832  0.71524722     0.15700
H389        H  0.42989185  0.10331048  0.67133181     0.15700
C390        C  0.41795869  0.04570359  0.72318041    -0.23200
H391        H  0.08871130  0.19704937  0.71840860     0.05900
H392        H  0.07232600  0.21789995  0.67967466     0.09200
H393        H  0.10198978  0.19107561  0.66955571     0.09200
H394        H  0.42136389  0.02416676  0.74338150     0.09100
H395        H  0.40498914  0.56220761  0.74029695     0.09100
H396        H  0.39488987  0.02712818  0.69994975     0.05900
C397        C  0.08420412  0.47258020  0.71289889    -0.19900
C398        C  0.07116628  0.00173419  0.70331553    -0.06500
C399        C  0.08881854  0.02699853  0.66915767     0.14400
C400        C  0.11617967  0.02086849  0.64519915    -0.19900
C401        C  0.13054955  0.99324184  0.65559223    -0.06500
C402        C  0.11483762  0.46925728  0.69052550     0.14400
C403        C  0.13164084  0.44185019  0.70567104    -0.23300
H404        H  0.07083064  0.45252138  0.73844943     0.15700
H405        H  0.12787537  0.03947243  0.61852714     0.15700
C406        C  0.08262527  0.06303729  0.65779669    -0.23200
H407        H  0.11928152  0.42931414  0.73542743     0.05900
H408        H  0.16665998  0.96037300  0.70744103     0.09200
H409        H  0.12199166  0.41440120  0.68638017     0.09200
H410        H  0.06665080  0.07000351  0.68085552     0.09100
H411        H  0.06399410  0.55563662  0.63014795     0.09100
H412        H  0.11387829  0.09211245  0.65348553     0.05900
C413        C  0.49650113  0.49758333  0.78704497     0.45900
H414        H  0.49512240  0.49422398  0.81931199    -0.03100
C415        C  0.00053882  0.00613301  0.71147791     0.45900
H416        H  0.00248992  0.00943952  0.67921401    -0.03100
C417        C  0.45829560  0.96101056  0.76539036    -0.16800
C418        C  0.49701527  0.53761159  0.77365480    -0.16600
C419        C  0.03727969  0.00133465  0.76930562    -0.17000
C420        C  0.46098921  0.96498553  0.72513866    -0.17000
C421        C  0.99900043  0.54245766  0.73366592    -0.16500
C422        C  0.03865978  0.50424849  0.72885709    -0.16800
O423        O  0.24351265  0.64050590  0.04771445    -0.78100
C424        C  0.25139716  0.57935385  0.93832666     0.83000
O425        O  0.35930270  0.60688301  0.05015757    -0.79200
O426        O  0.39141547  0.67841620  0.92002865    -0.80700
O427        O  0.32877889  0.75241427  0.97323699    -0.80500
O428        O  0.28914473  0.70924521  0.05489311    -0.79100
Zn429      Zn  0.27869335  0.62051558  0.01874897     1.55700
O430        O  0.32129936  0.71604925  0.91867625    -0.80500
Cd431      Cd  0.33770514  0.72069391  0.01831747     1.59700
Cd432      Cd  0.37899163  0.66253856  0.01967837     1.59600
O433        O  0.39500553  0.75812933  0.04656328    -0.80500
O434        O  0.33090311  0.66706675  0.99855715    -1.91000
Cd435      Cd  0.33181475  0.66779030  0.93944871     1.59900
O436        O  0.41767972  0.71242032  0.05436787    -0.80400
O437        O  0.28256071  0.60912490  0.91958245    -0.79100
C438        C  0.32210981  0.57956730  0.06136230     0.83400
C439        C  0.25290569  0.67680386  0.06041956     0.83100
O440        O  0.24597527  0.58165597  0.97484463    -0.78100
C441        C  0.32105414  0.74634574  0.93676100     0.83900
O442        O  0.29002252  0.58318519  0.05348756    -0.78100
C443        C  0.42198148  0.74865154  0.05930998     0.84000
C444        C  0.42151921  0.67777396  0.93875358     0.84400
O445        O  0.41930305  0.66969554  0.97522274    -0.80600
C446        C  0.33110517  0.83216503  0.86823348     0.03500
C447        C  0.33152601  0.79585844  0.88134618    -0.12600
C448        C  0.31095146  0.77570102  0.91614247     0.01000
C449        C  0.28472047  0.78800966  0.93469836    -0.11100
C450        C  0.27902295  0.82021423  0.91905808     0.03500
C451        C  0.30295080  0.84290407  0.88620883    -0.10500
H452        H  0.35032761  0.78517249  0.86630538     0.09100
H453        H  0.26852095  0.77230303  0.96159437     0.06700
H454        H  0.30145616  0.87020133  0.87623651     0.06500
O455        O  0.16815824  0.92098873  0.97517670    -0.78100
C456        C  0.07754602  0.82393752  0.06254866     0.83000
O457        O  0.25551355  0.89935820  0.05346801    -0.79200
O458        O  0.14299043  0.74857605  0.05317318    -0.80700
O459        O  0.10811754  0.78399317  0.92381799    -0.80500
O460        O  0.17566063  0.89265703  0.92034630    -0.79100
Zn461      Zn  0.16064805  0.88217072  0.02026041     1.55700
O462        O  0.08023478  0.74764704  0.97924844    -0.80500
Cd463      Cd  0.16712422  0.83496443  0.94235860     1.59700
Cd464      Cd  0.22256101  0.84401313  0.02165390     1.59600
O465        O  0.21740819  0.82712849  0.92261008    -0.80500
O466        O  0.16804860  0.83670858  0.00146204    -1.91000
Cd467      Cd  0.12125424  0.78277363  0.02302689     1.59900
O468        O  0.25786081  0.84068524  0.97597602    -0.80400
O469        O  0.08240305  0.79225856  0.05885593    -0.79100
C470        C  0.24398835  0.92516451  0.06463791     0.83400
C471        C  0.17540936  0.92290420  0.93850333     0.83100
O472        O  0.10395228  0.86015295  0.04836692    -0.78100
C473        C  0.07820372  0.75290473  0.94261526     0.83900
O474        O  0.20787243  0.92021224  0.05602366    -0.78100
C475        C  0.25036257  0.83107411  0.93986264     0.84000
C476        C  0.18010380  0.75803755  0.06400897     0.84400
O477        O  0.21259377  0.79369040  0.05634979    -0.80600
C478        C  0.15899334  0.66085002  0.12102311     0.03500
C479        C  0.19028150  0.65375546  0.10491122    -0.12600
C480        C  0.22048517  0.68326403  0.07903156     0.01000
C481        C  0.21851209  0.71910714  0.06828752    -0.11100
C482        C  0.18629080  0.72532726  0.08244793     0.03500
C483        C  0.15755497  0.69707466  0.10995887    -0.10500
H484        H  0.19123288  0.62555810  0.11264276     0.09100
H485        H  0.24046866  0.74080933  0.04658384     0.06700
H486        H  0.13428857  0.70347085  0.12263379     0.06500
C487        C  0.16575537  0.00015937  0.87081449     0.03500
C488        C  0.19687714  0.53892457  0.88679020    -0.12600
C489        C  0.22162418  0.53960190  0.91849582     0.01000
C490        C  0.21455421  0.00124105  0.93464105    -0.11100
C491        C  0.18536448  0.96247713  0.91778769     0.03500
C492        C  0.16276002  0.96233052  0.88450228    -0.10500
H493        H  0.19967499  0.56825570  0.87662646     0.09100
H494        H  0.23184930  0.00158018  0.96062206     0.06700
H495        H  0.14051598  0.93255425  0.87124187     0.06500
C496        C  0.49933541  0.83727139  0.12465515     0.03500
C497        C  0.03788421  0.84189373  0.11090860    -0.12600
C498        C  0.03803389  0.81679376  0.08053676     0.01000
C499        C  0.49962194  0.78515219  0.06541198    -0.11100
C500        C  0.46116479  0.78083979  0.07788199     0.03500
C501        C  0.46114559  0.80788585  0.10651344    -0.10500
H502        H  0.06783026  0.86516525  0.12353763     0.09100
H503        H  0.49976610  0.76526355  0.04213476     0.06700
H504        H  0.43153496  0.80571969  0.11489157     0.06500
C505        C  0.49960545  0.66477920  0.87673937     0.03500
C506        C  0.46142390  0.66212950  0.88877737    -0.12600
C507        C  0.46134426  0.68752354  0.91906762     0.01000
C508        C  0.50003141  0.71790082  0.93558061    -0.11100
C509        C  0.03856305  0.72266564  0.92255119     0.03500
C510        C  0.03803441  0.69503870  0.89423923    -0.10500
H511        H  0.43148113  0.63843174  0.87647975     0.09100
H512        H  0.49999313  0.73714027  0.95952439     0.06700
H513        H  0.06740512  0.69609488  0.88702110     0.06500
C514        C  0.33778429  0.00326067  0.12483975     0.03500
C515        C  0.34481611  0.54108872  0.10728040    -0.12600
C516        C  0.31496719  0.54091172  0.08133372     0.03200
C517        C  0.27954424  0.00247271  0.07073201    -0.11100
C518        C  0.27470930  0.96429716  0.08439004     0.03500
C519        C  0.30284263  0.96476091  0.11247364    -0.10500
H520        H  0.37379334  0.57040558  0.11280984     0.09100
H521        H  0.25788986  0.00212664  0.04875384     0.06700
H522        H  0.29797239  0.93502352  0.12389558     0.06500
O523        O  0.41684550  0.66260018  0.52419290    -0.78100
C524        C  0.32014230  0.57279958  0.43690861     0.83000
O525        O  0.39487319  0.74965130  0.44694293    -0.79200
O526        O  0.24270038  0.63587703  0.45079651    -0.80700
O527        O  0.28083026  0.60119360  0.57934117    -0.80500
O528        O  0.38882130  0.67089978  0.57915515    -0.79100
Zn529      Zn  0.37819943  0.65506888  0.47921699     1.55700
O530        O  0.24404931  0.57212463  0.52476756    -0.80500
Cd531      Cd  0.33010773  0.66024073  0.55844569     1.59700
Cd532      Cd  0.33926438  0.71497578  0.47870544     1.59600
O533        O  0.32089545  0.70954615  0.57754225    -0.80500
O534        O  0.33197869  0.66086205  0.49931249    -1.91000
Cd535      Cd  0.27755354  0.61371533  0.47971013     1.59900
O536        O  0.33430988  0.74934148  0.52360031    -0.80400
O537        O  0.28779846  0.57648217  0.44251714    -0.79100
C538        C  0.42127113  0.73905625  0.43523638     0.83400
C539        C  0.41912814  0.67071300  0.56067483     0.83100
O540        O  0.35668467  0.59943295  0.45022886    -0.78100
C541        C  0.24998708  0.57051778  0.56140273     0.83900
O542        O  0.41673198  0.70312738  0.44346241    -0.78100
C543        C  0.32458345  0.74205974  0.55973888     0.84000
C544        C  0.25309038  0.67268626  0.43827685     0.84400
O545        O  0.28956087  0.70460593  0.44391981    -0.80600
C546        C  0.33643449  0.82998997  0.62581724     0.03500
C547        C  0.34266643  0.79836026  0.60952027    -0.12600
C548        C  0.31547237  0.77177749  0.58038292     0.01000
C549        C  0.28275081  0.77787190  0.56647795    -0.11100
C550        C  0.27576491  0.80904805  0.58234618     0.03500
C551        C  0.30196808  0.83423581  0.61274371    -0.10500
H552        H  0.37056360  0.79663587  0.61686782     0.09100
H553        H  0.26345886  0.75913381  0.54215000     0.06700
H554        H  0.29770056  0.85938102  0.62400019     0.06500
O555        O  0.13937392  0.74162043  0.44991377    -0.78100
C556        C  0.07602310  0.74591996  0.55738857     0.83000
O557        O  0.10306924  0.85536622  0.44914603    -0.79200
O558        O  0.17253065  0.88431468  0.57959437    -0.80700
O559        O  0.25299879  0.82824243  0.52558116    -0.80500
O560        O  0.20904870  0.78564744  0.44530368    -0.79100
Zn561      Zn  0.11859877  0.77598831  0.47812244     1.55700
O562        O  0.21436774  0.81721317  0.57967230    -0.80500
Cd563      Cd  0.21942315  0.83474289  0.48034494     1.59700
Cd564      Cd  0.15878790  0.87491207  0.47991390     1.59600
O565        O  0.25513423  0.89132485  0.45051831    -0.80500
O566        O  0.16481366  0.82725466  0.49977123    -1.91000
Cd567      Cd  0.16482768  0.82648820  0.55881719     1.59900
O568        O  0.20926783  0.91439603  0.44561167    -0.80400
O569        O  0.10593379  0.77589179  0.57682397    -0.79100
C570        C  0.07655873  0.81869945  0.43671753     0.83400
C571        C  0.17615671  0.75012525  0.43884926     0.83100
O572        O  0.07850984  0.74198853  0.52070881    -0.78100
C573        C  0.24620882  0.81926562  0.56189726     0.83900
O574        O  0.08121019  0.78709827  0.44317550    -0.78100
C575        C  0.24536993  0.91844596  0.43899940     0.84000
C576        C  0.17101080  0.91438321  0.56175551     0.84400
O577        O  0.16371773  0.91335387  0.52521416    -0.80600
C578        C  0.16249542  0.49198495  0.62919520     0.03500
C579        C  0.15528656  0.95356840  0.61310343    -0.12600
C580        C  0.18074566  0.95353780  0.58239811     0.01000
C581        C  0.21248487  0.49221118  0.56679033    -0.11100
C582        C  0.22054546  0.53078787  0.58245522     0.03500
C583        C  0.19647929  0.53041147  0.61452032    -0.10500
H584        H  0.12782175  0.92405889  0.62177767     0.09100
H585        H  0.23044338  0.49228562  0.54151741     0.06700
H586        H  0.20186753  0.56019652  0.62592159     0.06500
C587        C  0.49850313  0.66941122  0.63272042     0.03500
C588        C  0.46022368  0.66524554  0.61760954    -0.12600
C589        C  0.45933879  0.68197905  0.58075271     0.01000
C590        C  0.49751870  0.70822973  0.56121189    -0.11100
C591        C  0.03602778  0.71608355  0.57710009     0.03500
C592        C  0.03593742  0.69428211  0.61067808    -0.10500
H593        H  0.43036395  0.64725565  0.63259085     0.09100
H594        H  0.49727090  0.72293038  0.53362160     0.06700
H595        H  0.06523650  0.69547936  0.61742388     0.06500
C596        C  0.49883366  0.83384996  0.37446250     0.03500
C597        C  0.46036962  0.79886790  0.38747363    -0.12600
C598        C  0.46041179  0.77055475  0.41521967     0.01000
C599        C  0.49908106  0.77571975  0.42816367    -0.11100
C600        C  0.03742963  0.81133468  0.41728547     0.03500
C601        C  0.03704651  0.84106594  0.39157792    -0.10500
H602        H  0.43034029  0.79391506  0.37658740     0.09100
H603        H  0.49917529  0.75402842  0.44985711     0.06700
H604        H  0.06632198  0.87009915  0.38568624     0.06500
C605        C  0.15701040  0.65438439  0.38124342     0.03500
C606        C  0.15172251  0.68718475  0.39578693    -0.12600
C607        C  0.18196024  0.71717917  0.42096012     0.01000
C608        C  0.21685920  0.71363907  0.43234964    -0.11100
C609        C  0.22102679  0.67975009  0.41979859     0.03500
C610        C  0.19203361  0.65107497  0.39315651    -0.10500
H611        H  0.12420627  0.68933087  0.38755369     0.09100
H612        H  0.23918937  0.73558615  0.45345598     0.06700
H613        H  0.19630273  0.62578357  0.38232489     0.06500
C614        C  0.33596080  0.99647000  0.37487996     0.03500
C615        C  0.34019159  0.53457501  0.38863133    -0.12600
C616        C  0.31339107  0.53409639  0.41798189     0.01000
C617        C  0.28075759  0.99554860  0.43199988    -0.11100
C618        C  0.27732605  0.95760253  0.42002457     0.03500
C619        C  0.30587029  0.95819941  0.39248439    -0.10500
H620        H  0.36450521  0.56461420  0.37686793     0.09100
H621        H  0.25981178  0.99517303  0.45466745     0.06700
H622        H  0.30499854  0.92910566  0.38541147     0.06500
C623        C  0.49997897  0.99841007  0.21184310     0.45900
H624        H  0.50029869  0.99867859  0.17945201    -0.03100
C625        C  0.49852253  0.99822795  0.28745340     0.45900
H626        H  0.49817229  0.99780558  0.31984230    -0.03100
C627        C  0.03887411  0.53667597  0.22970898    -0.16800
C628        C  0.46110732  0.99849692  0.22882758    -0.16600
C629        C  0.49970019  0.96004837  0.23006669    -0.17000
C630        C  0.03786394  0.53676166  0.26990256    -0.17000
C631        C  0.46104845  0.99970332  0.26907269    -0.16500
C632        C  0.49759477  0.95919039  0.27027347    -0.16800
C633        C  0.38551163  0.47205212  0.28791022    -0.19900
C634        C  0.42851170  0.00141709  0.29391305    -0.06500
C635        C  0.43998470  0.03089508  0.32464968     0.14400
C636        C  0.40914093  0.02729880  0.35078798    -0.19900
C637        C  0.36632098  0.99744825  0.34556700    -0.06500
C638        C  0.35403428  0.47068308  0.31246781     0.14400
C639        C  0.30820704  0.44248569  0.30136067    -0.23300
H640        H  0.37645960  0.44996735  0.26395564     0.15700
H641        H  0.41875414  0.04833886  0.37564453     0.15700
C642        C  0.48389956  0.06808864  0.32917781    -0.23200
H643        H  0.29182166  0.41604371  0.32240380     0.05900
H644        H  0.29197040  0.46115355  0.30022493     0.09200
H645        H  0.30509326  0.92843680  0.27198727     0.09200
H646        H  0.49475771  0.58428390  0.30051869     0.09100
H647        H  0.50559803  0.05807387  0.34096148     0.09100
H648        H  0.48476868  0.09158135  0.35004835     0.05900
C649        C  0.11492560  0.63977610  0.32063197    -0.19900
C650        C  0.12623873  0.62397318  0.35315048    -0.06500
C651        C  0.10849156  0.57992116  0.35764970     0.14400
C652        C  0.08269026  0.55340488  0.32807445    -0.19900
C653        C  0.07012593  0.56888519  0.29621372    -0.06500
C654        C  0.08549992  0.61279424  0.29310169     0.14400
C655        C  0.07009772  0.63251071  0.26330722    -0.23300
H656        H  0.12806386  0.67352805  0.31738584     0.15700
H657        H  0.07054283  0.51976931  0.33097191     0.15700
C658        C  0.11361666  0.55924788  0.39398805    -0.23200
H659        H  0.05986544  0.65255066  0.27848687     0.05900
H660        H  0.04235080  0.60905393  0.24654771     0.09200
H661        H  0.09620901  0.65267902  0.24279251     0.09200
H662        H  0.12896944  0.58142782  0.41848092     0.09100
H663        H  0.13221971  0.54382052  0.38689724     0.09100
H664        H  0.08188315  0.53483468  0.40482382     0.05900
C665        C  0.46803661  0.87701592  0.35119077    -0.19900
C666        C  0.49847590  0.86482283  0.34614160    -0.06500
C667        C  0.02670075  0.88155463  0.31385799     0.14400
C668        C  0.02646152  0.91302158  0.29037581    -0.19900
C669        C  0.49637122  0.92556009  0.29591836    -0.06500
C670        C  0.46549323  0.90570275  0.32569402     0.14400
C671        C  0.42817709  0.91234890  0.32966216    -0.23300
H672        H  0.44575010  0.86386486  0.37527993     0.15700
H673        H  0.04959590  0.92751286  0.26707734     0.15700
C674        C  0.05502981  0.86462659  0.30195192    -0.23200
H675        H  0.40402175  0.88917162  0.35023923     0.05900
H676        H  0.41257993  0.90821927  0.30078722     0.09200
H677        H  0.43819947  0.94396248  0.34145496     0.09200
H678        H  0.03609222  0.82973540  0.29967517     0.09100
H679        H  0.08117135  0.87375517  0.32306224     0.09100
H680        H  0.06990330  0.87720910  0.27291971     0.05900
C681        C  0.41697383  0.52952264  0.20846775    -0.19900
C682        C  0.42853695  0.99882576  0.20290866    -0.06500
C683        C  0.40878488  0.96876982  0.17287539     0.14400
C684        C  0.38093530  0.97245606  0.14728773    -0.19900
C685        C  0.36913782  0.00302436  0.15260132    -0.06500
C686        C  0.38616613  0.53088842  0.18483245     0.14400
C687        C  0.37022926  0.56004649  0.19641517    -0.23300
H688        H  0.43155544  0.55210267  0.23191445     0.15700
H689        H  0.36786274  0.95072663  0.12303795     0.15700
C690        C  0.41438397  0.93098074  0.16878977    -0.23200
H691        H  0.38284569  0.57462108  0.22538281     0.05900
H692        H  0.33507105  0.04203371  0.19864890     0.09200
H693        H  0.38037940  0.58624306  0.17512087     0.09200
H694        H  0.40935109  0.91489463  0.19758197     0.09100
H695        H  0.44616130  0.44033536  0.15718967     0.09100
H696        H  0.39108864  0.90755598  0.14804968     0.05900
C697        C  0.47064658  0.88523095  0.20980337    -0.19900
C698        C  0.50148824  0.92794332  0.20515985    -0.06500
C699        C  0.03314682  0.93961451  0.17613815     0.14400
C700        C  0.03090475  0.90924652  0.15055463    -0.19900
C701        C  0.49995774  0.86662681  0.15463907    -0.06500
C702        C  0.47053874  0.85415022  0.18601668     0.14400
C703        C  0.43993845  0.80874922  0.19653767    -0.23300
H704        H  0.44685685  0.87595100  0.23253528     0.15700
H705        H  0.05351854  0.91926289  0.12669974     0.15700
C706        C  0.07077946  0.98338537  0.17256274    -0.23200
H707        H  0.44371006  0.80338253  0.22797623     0.05900
H708        H  0.44547024  0.78622784  0.17985717     0.09200
H709        H  0.40695336  0.80165626  0.19157497     0.09200
H710        H  0.08530070  0.99396326  0.20174475     0.09100
H711        H  0.06147983  0.50511991  0.15984291     0.09100
H712        H  0.09558202  0.98449409  0.15301829     0.05900
C713        C  0.14335553  0.61763213  0.18139839    -0.19900
C714        C  0.12804640  0.63029391  0.14944081    -0.06500
C715        C  0.08383301  0.61171080  0.14407454     0.14400
C716        C  0.05646361  0.58302837  0.17206271    -0.19900
C717        C  0.07154998  0.56977997  0.20376630    -0.06500
C718        C  0.11579509  0.58636239  0.20770816     0.14400
C719        C  0.13540893  0.57044510  0.23709229    -0.23300
H720        H  0.17724939  0.63105179  0.18493384     0.15700
H721        H  0.02264745  0.57018762  0.16870121     0.15700
C722        C  0.06485914  0.61942380  0.10783378    -0.23200
H723        H  0.15615350  0.56119553  0.22161129     0.05900
H724        H  0.11179468  0.54218373  0.25337264     0.09200
H725        H  0.15497003  0.59582435  0.25816296     0.09200
H726        H  0.07875131  0.61387108  0.08124970     0.09100
H727        H  0.07030629  0.65192145  0.10730348     0.09100
H728        H  0.03001025  0.59782016  0.10658636     0.05900
C729        C  0.43521287  0.90434098  0.81496188    -0.19900
C730        C  0.42321342  0.92499948  0.78785100    -0.06500
C731        C  0.37938697  0.91154995  0.78448897     0.14400
C732        C  0.35000495  0.87941719  0.80943169    -0.19900
C733        C  0.36291279  0.86133227  0.83885012    -0.06500
C734        C  0.40668503  0.87466312  0.84176448     0.14400
C735        C  0.42499962  0.86087024  0.87450431    -0.23300
H736        H  0.46748786  0.91138156  0.81514157     0.15700
H737        H  0.31667582  0.86939056  0.80669672     0.15700
C738        C  0.36178457  0.93024158  0.75601713    -0.23200
H739        H  0.46005862  0.88088032  0.87582298     0.05900
H740        H  0.41809346  0.82819085  0.86994575     0.09200
H741        H  0.41248844  0.86371936  0.90320413     0.09200
H742        H  0.38625516  0.95567613  0.73798274     0.09100
H743        H  0.34479320  0.44337119  0.77218551     0.09100
H744        H  0.33914137  0.90527607  0.73600651     0.05900
C745        C  0.03023785  0.61114375  0.79875517    -0.19900
C746        C  0.49742133  0.56901170  0.80171416    -0.06500
C747        C  0.46536476  0.55837130  0.83014239     0.14400
C748        C  0.46715146  0.59019842  0.85414594    -0.19900
C749        C  0.49863770  0.63286715  0.84924043    -0.06500
C750        C  0.02947443  0.64341910  0.81967795     0.14400
C751        C  0.06021874  0.68818238  0.80723066    -0.23300
H752        H  0.05635337  0.61937289  0.77912182     0.15700
H753        H  0.44372055  0.58149683  0.87709969     0.15700
C754        C  0.42876600  0.51400736  0.83536080    -0.23200
H755        H  0.05604293  0.69149243  0.77555914     0.05900
H756        H  0.09323824  0.69568026  0.81278002     0.09200
H757        H  0.05471994  0.71189274  0.82163236     0.09200
H758        H  0.44003200  0.99311337  0.84706545     0.09100
H759        H  0.41228658  0.50179343  0.80717250     0.09100
H760        H  0.40505806  0.51259289  0.85653417     0.05900
C761        C  0.05968845  0.97616752  0.82777444    -0.19900
C762        C  0.07169645  0.00323453  0.79517787    -0.06500
C763        C  0.11562290  0.53205617  0.78948015     0.14400
C764        C  0.14552731  0.52809482  0.81246591    -0.19900
C765        C  0.13299181  0.99920735  0.84394355    -0.06500
C766        C  0.08920857  0.97432747  0.85263807     0.14400
C767        C  0.07285548  0.94788406  0.88953074    -0.23300
H768        H  0.02686256  0.95686476  0.83499927     0.15700
H769        H  0.17900332  0.54936984  0.80711018     0.15700
C770        C  0.13222825  0.56963654  0.76230834    -0.23200
H771        H  0.03856465  0.93596611  0.89413534     0.05900
H772        H  0.08991528  0.46706471  0.91541767     0.09200
H773        H  0.07654671  0.91980861  0.88790981     0.09200
H774        H  0.10681579  0.57410861  0.74970359     0.09100
H775        H  0.15094564  0.06650674  0.73845343     0.09100
H776        H  0.15325364  0.59877832  0.77888584     0.05900
C777        C  0.38553153  0.90547685  0.63970317    -0.19900
C778        C  0.36975015  0.86337668  0.65092869    -0.06500
C779        C  0.38590057  0.85480643  0.68525076     0.14400
C780        C  0.41764956  0.88859001  0.70672139    -0.19900
C781        C  0.43109398  0.93101431  0.69736736    -0.06500
C782        C  0.41449303  0.93917140  0.66278249     0.14400
C783        C  0.42388030  0.98210685  0.64937253    -0.23300
H784        H  0.37382089  0.91229568  0.61304839     0.15700
H785        H  0.43127135  0.88155369  0.73177233     0.15700
C786        C  0.36826828  0.81056400  0.70094548    -0.23200
H787        H  0.39371512  0.98195848  0.64469519     0.05900
H788        H  0.44173327  0.99048863  0.62134696     0.09200
H789        H  0.44184892  0.50662377  0.67074950     0.09200
H790        H  0.37626685  0.79171521  0.68134620     0.09100
H791        H  0.33333180  0.79517500  0.70402727     0.09100
H792        H  0.38145626  0.81041935  0.73025469     0.05900
C793        C  0.03601144  0.61528112  0.70475535    -0.19900
C794        C  0.49796027  0.57824829  0.71350300    -0.06500
C795        C  0.45971151  0.57755366  0.70546912     0.14400
C796        C  0.46022595  0.60813906  0.68037773    -0.19900
C797        C  0.49858529  0.64331169  0.66735589    -0.06500
C798        C  0.03649271  0.64924262  0.68526351     0.14400
C799        C  0.07702189  0.69126005  0.68791900    -0.23300
H800        H  0.06567932  0.61905610  0.71527836     0.15700
H801        H  0.42984196  0.60320723  0.67128388     0.15700
C802        C  0.41791460  0.54562926  0.72315783    -0.23200
H803        H  0.08876575  0.69706815  0.71845584     0.05900
H804        H  0.07235789  0.71794636  0.67976496     0.09200
H805        H  0.10200027  0.69111034  0.66958552     0.09200
H806        H  0.42132700  0.52410489  0.74336571     0.09100
H807        H  0.40505494  0.06229375  0.74033135     0.09100
H808        H  0.39486305  0.52704404  0.69991903     0.05900
C809        C  0.08422153  0.97255241  0.71290711    -0.19900
C810        C  0.07111314  0.50173101  0.70328774    -0.06500
C811        C  0.08871457  0.52695384  0.66909698     0.14400
C812        C  0.11605484  0.52080354  0.64512832    -0.19900
C813        C  0.13047700  0.49322793  0.65555340    -0.06500
C814        C  0.11484620  0.96921503  0.69052981     0.14400
C815        C  0.13155727  0.94171439  0.70563176    -0.23300
H816        H  0.07081084  0.95246641  0.73843595     0.15700
H817        H  0.12771005  0.53936704  0.61843091     0.15700
C818        C  0.08250284  0.56297592  0.65770308    -0.23200
H819        H  0.11921849  0.92920191  0.73539855     0.05900
H820        H  0.16673759  0.46059301  0.70751925     0.09200
H821        H  0.12180207  0.91424708  0.68633877     0.09200
H822        H  0.06653562  0.56997512  0.68074949     0.09100
H823        H  0.06412258  0.05572817  0.63023983     0.09100
H824        H  0.11375098  0.59204900  0.65336783     0.05900
C825        C  0.99648788  0.99756117  0.78701977     0.45900
H826        H  0.99510550  0.99420426  0.81928719    -0.03100
C827        C  0.50053245  0.50616668  0.71150589     0.45900
H828        H  0.50246597  0.50946945  0.67924367    -0.03100
C829        C  0.95827066  0.46097325  0.76542633    -0.16800
C830        C  0.99699289  0.03758104  0.77361894    -0.16600
C831        C  0.53728858  0.50135408  0.76931779    -0.17000
C832        C  0.96096585  0.46492840  0.72517497    -0.17000
C833        C  0.49905472  0.04250646  0.73363943    -0.16500
C834        C  0.53868792  0.00426265  0.72881685    -0.16800
O835        O  0.74345699  0.14043518  0.04768009    -0.78100
C836        C  0.75141557  0.07934878  0.93830859     0.83000
O837        O  0.85934856  0.10690869  0.05013096    -0.79200
O838        O  0.89141198  0.17845986  0.91997832    -0.80700
O839        O  0.82882024  0.25244453  0.97325486    -0.80500
O840        O  0.78904970  0.20918336  0.05484030    -0.79100
Zn841      Zn  0.77870692  0.12050563  0.01873247     1.55700
O842        O  0.82129078  0.21607172  0.91868648    -0.80500
Cd843      Cd  0.83768072  0.22068059  0.01833654     1.59700
Cd844      Cd  0.87901464  0.16255750  0.01963910     1.59600
O845        O  0.89494375  0.25810040  0.04666305    -0.80500
O846        O  0.83090905  0.16707541  0.99854236    -1.91000
Cd847      Cd  0.83180800  0.16780782  0.93942791     1.59900
O848        O  0.91770711  0.21244684  0.05431963    -0.80400
O849        O  0.78254821  0.10914004  0.91954970    -0.79100
C850        C  0.82215966  0.07959143  0.06134538     0.83400
C851        C  0.75281956  0.17673035  0.06036937     0.83100
O852        O  0.74602493  0.08163825  0.97483352    -0.78100
C853        C  0.82107622  0.24637846  0.93678097     0.83900
O854        O  0.79006672  0.08320199  0.05347682    -0.78100
C855        C  0.92196086  0.24864756  0.05934538     0.84000
C856        C  0.92151961  0.17781127  0.93869014     0.84400
O857        O  0.91930999  0.16972388  0.97515784    -0.80600
C858        C  0.83102368  0.33211395  0.86819650     0.03500
C859        C  0.83144600  0.29581323  0.88132307    -0.12600
C860        C  0.81096955  0.27573793  0.91617760     0.01000
C861        C  0.78480683  0.28810335  0.93477724    -0.11100
C862        C  0.77906972  0.32027367  0.91911219     0.03500
C863        C  0.80291662  0.34289577  0.88620303    -0.10500
H864        H  0.85020139  0.28509042  0.86625616     0.09100
H865        H  0.76867009  0.27244912  0.96170984     0.06700
H866        H  0.80140762  0.37017917  0.87621237     0.06500
O867        O  0.66819119  0.42100678  0.97523476    -0.78100
C868        C  0.57754480  0.32395719  0.06255415     0.83000
O869        O  0.75550622  0.39935219  0.05350100    -0.79200
O870        O  0.64299649  0.24859670  0.05325678    -0.80700
O871        O  0.60818978  0.28400706  0.92385872    -0.80500
O872        O  0.67563469  0.39266302  0.92038909    -0.79100
Zn873      Zn  0.66066078  0.38217805  0.02030501     1.55700
O874        O  0.58029454  0.24765924  0.97928710    -0.80500
Cd875      Cd  0.66716831  0.33500402  0.94240874     1.59700
Cd876      Cd  0.72256451  0.34399727  0.02172256     1.59600
O877        O  0.71749321  0.32724734  0.92264927    -0.80500
O878        O  0.66807199  0.33671984  0.00151447    -1.91000
Cd879      Cd  0.62127852  0.28279086  0.02307856     1.59900
O880        O  0.75786209  0.34065819  0.97605432    -0.80400
O881        O  0.58240450  0.29227948  0.05886941    -0.79100
C882        C  0.74397642  0.42515162  0.06467949     0.83400
C883        C  0.67540323  0.42291371  0.93855569     0.83100
O884        O  0.60395504  0.36017336  0.04837867    -0.78100
C885        C  0.57827542  0.25291558  0.94265209     0.83900
O886        O  0.70785749  0.42019807  0.05608234    -0.78100
C887        C  0.75041160  0.33113036  0.93992138     0.84000
C888        C  0.68010239  0.25804366  0.06410207     0.84400
O889        O  0.71260103  0.29369256  0.05645007    -0.80600
C890        C  0.65890943  0.16076737  0.12099737     0.03500
C891        C  0.69016076  0.15364470  0.10483818    -0.12600
C892        C  0.72038839  0.18317675  0.07898802     0.01000
C893        C  0.71846379  0.21906521  0.06831612    -0.11100
C894        C  0.68626865  0.22530706  0.08251235     0.03500
C895        C  0.65751406  0.19702993  0.10999641    -0.10500
H896        H  0.69107788  0.12541992  0.11252735     0.09100
H897        H  0.74043763  0.24079169  0.04663679     0.06700
H898        H  0.63426668  0.20343677  0.12270038     0.06500
C899        C  0.66574402  0.50015522  0.87084998     0.03500
C900        C  0.69685761  0.03891790  0.88680443    -0.12600
C901        C  0.72162805  0.03959491  0.91848861     0.01000
C902        C  0.71451644  0.50124400  0.93470135    -0.11100
C903        C  0.68533807  0.46248018  0.91784493     0.03500
C904        C  0.66273818  0.46232701  0.88455326    -0.10500
H905        H  0.69967063  0.06825346  0.87663282     0.09100
H906        H  0.73180553  0.50158659  0.96069001     0.06700
H907        H  0.64049179  0.43254824  0.87129785     0.06500
C908        C  0.99935368  0.33726212  0.12470237     0.03500
C909        C  0.53788623  0.34188497  0.11093667    -0.12600
C910        C  0.53803278  0.31681254  0.08053827     0.01000
C911        C  0.99960315  0.28517026  0.06540841    -0.11100
C912        C  0.96114936  0.28083764  0.07791948     0.03500
C913        C  0.96114661  0.30786556  0.10658433    -0.10500
H914        H  0.56783562  0.36514094  0.12357193     0.09100
H915        H  0.99973848  0.26529903  0.04210864     0.06700
H916        H  0.93153848  0.30568510  0.11499840     0.06500
C917        C  0.99959187  0.16477450  0.87668832     0.03500
C918        C  0.96141405  0.16214033  0.88871821    -0.12600
C919        C  0.96134045  0.18755589  0.91899321     0.01000
C920        C  0.00003008  0.21792688  0.93550775    -0.11100
C921        C  0.53863718  0.22268081  0.92258453     0.03500
C922        C  0.53810662  0.19505864  0.89426537    -0.10500
H923        H  0.93147008  0.13843878  0.87642713     0.09100
H924        H  0.99999494  0.23717764  0.95944223     0.06700
H925        H  0.56747510  0.19611613  0.88703358     0.06500
C926        C  0.83779600  0.50321000  0.12483431     0.03500
C927        C  0.84485971  0.04110759  0.10726749    -0.12600
C928        C  0.81502176  0.04093403  0.08130952     0.03200
C929        C  0.77953714  0.50245618  0.07077601    -0.11100
C930        C  0.77469834  0.46427619  0.08442562     0.03500
C931        C  0.80284064  0.46472274  0.11248409    -0.10500
H932        H  0.87382530  0.07042641  0.11282511     0.09100
H933        H  0.75786859  0.50211632  0.04881680     0.06700
H934        H  0.79796325  0.43498091  0.12390173     0.06500
O935        O  0.91684095  0.16262814  0.52416242    -0.78100
C936        C  0.82009237  0.07280433  0.43687696     0.83000
O937        O  0.89485973  0.24964220  0.44697321    -0.79200
O938        O  0.74265224  0.13587896  0.45083081    -0.80700
O939        O  0.78084047  0.10118622  0.57931052    -0.80500
O940        O  0.88883175  0.17092388  0.57913414    -0.79100
Zn941      Zn  0.87816095  0.15505811  0.47920820     1.55700
O942        O  0.74409503  0.07211030  0.52472001    -0.80500
Cd943      Cd  0.83010945  0.16024517  0.55843439     1.59700
Cd944      Cd  0.83922653  0.21496846  0.47869859     1.59600
O945        O  0.82089762  0.20953772  0.57755804    -0.80500
O946        O  0.83195751  0.16086733  0.49930059    -1.91000
Cd947      Cd  0.77754401  0.11372570  0.47967736     1.59900
O948        O  0.83425254  0.24930879  0.52360735    -0.80400
O949        O  0.78776194  0.07652470  0.44241812    -0.79100
C950        C  0.92123853  0.23903370  0.43523704     0.83400
C951        C  0.91913594  0.17074459  0.56064287     0.83100
O952        O  0.85661615  0.09939871  0.45026140    -0.78100
C953        C  0.75002123  0.07050196  0.56135630     0.83900
O954        O  0.91667749  0.20308808  0.44342503    -0.78100
C955        C  0.82455742  0.24203808  0.55975341     0.84000
C956        C  0.75304824  0.17267761  0.43827722     0.84400
O957        O  0.78953120  0.20459404  0.44388595    -0.80600
C958        C  0.83636983  0.32992345  0.62587547     0.03500
C959        C  0.84258604  0.29827502  0.60959878    -0.12600
C960        C  0.81544335  0.27175037  0.58040158     0.01000
C961        C  0.78277440  0.27789860  0.56644554    -0.11100
C962        C  0.77579010  0.30907485  0.58230963     0.03500
C963        C  0.80195283  0.33422448  0.61274622    -0.10500
H964        H  0.87044437  0.29650279  0.61700491     0.09100
H965        H  0.76351480  0.25919225  0.54208840     0.06700
H966        H  0.79770017  0.35937961  0.62399060     0.06500
O967        O  0.63935298  0.24161765  0.44985065    -0.78100
C968        C  0.57608671  0.24593082  0.55738384     0.83000
O969        O  0.60306963  0.35535789  0.44909809    -0.79200
O970        O  0.67250729  0.38432161  0.57954431    -0.80700
O971        O  0.75300020  0.32821545  0.52552449    -0.80500
O972        O  0.70902777  0.28564178  0.44524327    -0.79100
Zn973      Zn  0.61858939  0.27597681  0.47808461     1.55700
O974        O  0.71442540  0.31728588  0.57963358    -0.80500
Cd975      Cd  0.71940418  0.33470944  0.48030731     1.59700
Cd976      Cd  0.65876897  0.37488553  0.47987266     1.59600
O977        O  0.75510525  0.39127419  0.45049296    -0.80500
O978        O  0.66480556  0.32723765  0.49973226    -1.91000
Cd979      Cd  0.66486200  0.32651434  0.55877552     1.59900
O980        O  0.70923065  0.41433363  0.44555731    -0.80400
O981        O  0.60600788  0.27590510  0.57680557    -0.79100
C982        C  0.57655480  0.31869285  0.43667553     0.83400
C983        C  0.67613477  0.25012577  0.43878104     0.83100
O984        O  0.57854336  0.24199073  0.52070014    -0.78100
C985        C  0.74624199  0.31929560  0.56185193     0.83900
O986        O  0.58119153  0.28708507  0.44314677    -0.78100
C987        C  0.74533396  0.41838311  0.43895921     0.84000
C988        C  0.67096873  0.41437725  0.56170042     0.84400
O989        O  0.66368782  0.41334257  0.52515614    -0.80600
C990        C  0.66250152  0.99196802  0.62911273     0.03500
C991        C  0.65520448  0.45355471  0.61303458    -0.12600
C992        C  0.68067820  0.45352738  0.58233938     0.01000
C993        C  0.71249289  0.99219462  0.56670462    -0.11100
C994        C  0.72057529  0.03076788  0.58239364     0.03500
C995        C  0.69651130  0.03039129  0.61446155    -0.10500
H996        H  0.62773884  0.42404599  0.62170974     0.09100
H997        H  0.73045448  0.99227017  0.54143205     0.06700
H998        H  0.70192158  0.06017471  0.62588090     0.06500
C999        C  0.99848737  0.16933047  0.63262654     0.03500
C1000       C  0.96021582  0.16519086  0.61753161    -0.12600
C1001       C  0.95934469  0.18199617  0.58071212     0.01000
C1002       C  0.99753156  0.20828351  0.56119548    -0.11100
C1003       C  0.53609976  0.21612118  0.57711471     0.03500
C1004       C  0.53600907  0.19434769  0.61071369    -0.10500
H1005       H  0.93034852  0.14717442  0.63249926     0.09100
H1006       H  0.99729261  0.22304064  0.53363638     0.06700
H1007       H  0.56530135  0.19553719  0.61746829     0.06500
C1008       C  0.99880520  0.33387333  0.37452371     0.03500
C1009       C  0.96034097  0.29888151  0.38751721    -0.12600
C1010       C  0.96038191  0.27053670  0.41522803     0.01000
C1011       C  0.99905198  0.27568841  0.42815921    -0.11100
C1012       C  0.53743203  0.31134031  0.41724896     0.03500
C1013       C  0.53706253  0.34105124  0.39150564    -0.10500
H1014       H  0.93031357  0.29394115  0.37664046     0.09100
H1015       H  0.99914653  0.25397366  0.44982470     0.06700
H1016       H  0.56635259  0.37005237  0.38556419     0.06500
C1017       C  0.65697988  0.15437095  0.38121222     0.03500
C1018       C  0.65170737  0.18719096  0.39572237    -0.12600
C1019       C  0.68194111  0.21718445  0.42089513     0.01000
C1020       C  0.71682994  0.21363740  0.43230621    -0.11100
C1021       C  0.72098434  0.17973283  0.41978651     0.03500
C1022       C  0.69198465  0.15104327  0.39315651    -0.10500
H1023       H  0.62420058  0.18934706  0.38747183     0.09100
H1024       H  0.73915962  0.23559014  0.45340930     0.06700
H1025       H  0.69623832  0.12573229  0.38235353     0.06500
C1026       C  0.83594560  0.49641944  0.37488269     0.03500
C1027       C  0.84014494  0.03461257  0.38858065    -0.12600
C1028       C  0.81335051  0.03410814  0.41794850     0.01000
C1029       C  0.78070741  0.49547146  0.43198171    -0.11100
C1030       C  0.77728980  0.45753587  0.41999802     0.03500
C1031       C  0.80585382  0.45814340  0.39247589    -0.10500
H1032       H  0.86443246  0.06465907  0.37680586     0.09100
H1033       H  0.75975320  0.49508616  0.45464788     0.06700
H1034       H  0.80499523  0.42905340  0.38540976     0.06500
C1035       C  0.00001101  0.49843191  0.21184957     0.45900
H1036       H  0.00032109  0.49867734  0.17945704    -0.03100
C1037       C  0.99856021  0.49828357  0.28746144     0.45900
H1038       H  0.99821247  0.49788182  0.31985110    -0.03100
C1039       C  0.53884042  0.03663852  0.22971637    -0.16800
C1040       C  0.96113863  0.49852283  0.22883230    -0.16600
C1041       C  0.99973692  0.46007644  0.23009398    -0.17000
C1042       C  0.53782791  0.03671177  0.26990736    -0.17000
C1043       C  0.96108206  0.49974483  0.26907485    -0.16500
C1044       C  0.99763265  0.45923619  0.27030187    -0.16800
C1045       C  0.88546177  0.97204882  0.28788892    -0.19900
C1046       C  0.92852862  0.50143805  0.29390809    -0.06500
C1047       C  0.93997957  0.53094170  0.32461638     0.14400
C1048       C  0.90913158  0.52731805  0.35076642    -0.19900
C1049       C  0.86631958  0.49741679  0.34557243    -0.06500
C1050       C  0.85399277  0.97074741  0.31241039     0.14400
C1051       C  0.80816159  0.94262742  0.30127263    -0.23300
H1052       H  0.87639701  0.94994437  0.26395055     0.15700
H1053       H  0.91873548  0.54837793  0.37560699     0.15700
C1054       C  0.98387260  0.56818457  0.32909532    -0.23200
H1055       H  0.79170132  0.91621151  0.32232892     0.05900
H1056       H  0.79200257  0.96136804  0.30008839     0.09200
H1057       H  0.80512450  0.42836709  0.27200531     0.09200
H1058       H  0.99471771  0.08427974  0.30040418     0.09100
H1059       H  0.00562395  0.55822191  0.34084641     0.09100
H1060       H  0.98472679  0.59166834  0.34996836     0.05900
C1061       C  0.61490063  0.13974331  0.32059775    -0.19900
C1062       C  0.62620316  0.12395154  0.35313116    -0.06500
C1063       C  0.60843731  0.07990146  0.35766068     0.14400
C1064       C  0.58263845  0.05337161  0.32809251    -0.19900
C1065       C  0.57008181  0.06884090  0.29621749    -0.06500
C1066       C  0.58546367  0.11275081  0.29308278     0.14400
C1067       C  0.57005338  0.13245962  0.26328656    -0.23300
H1068       H  0.62805103  0.17349505  0.31733117     0.15700
H1069       H  0.57048429  0.01973642  0.33100859     0.15700
C1070       C  0.61354400  0.05925069  0.39402430    -0.23200
H1071       H  0.55983900  0.15251546  0.27846334     0.05900
H1072       H  0.54228945  0.10899930  0.24654781     0.09200
H1073       H  0.59615450  0.15261146  0.24275610     0.09200
H1074       H  0.62885012  0.08144316  0.41851807     0.09100
H1075       H  0.63218444  0.04385260  0.38697482     0.09100
H1076       H  0.58180786  0.03481794  0.40483732     0.05900
C1077       C  0.96802849  0.37705786  0.35123648    -0.19900
C1078       C  0.99846002  0.36485316  0.34620171    -0.06500
C1079       C  0.52666043  0.38151661  0.31379827     0.14400
C1080       C  0.52642830  0.41299128  0.29032677    -0.19900
C1081       C  0.99639615  0.42560681  0.29596405    -0.06500
C1082       C  0.96550627  0.40575380  0.32573287     0.14400
C1083       C  0.92819761  0.41241202  0.32968544    -0.23300
H1084       H  0.94573060  0.36390638  0.37531718     0.15700
H1085       H  0.54954551  0.42746107  0.26701267     0.15700
C1086       C  0.55493768  0.36454010  0.30185669    -0.23200
H1087       H  0.90404117  0.38925277  0.35027286     0.05900
H1088       H  0.91259980  0.40826488  0.30080859     0.09200
H1089       H  0.93822918  0.44403511  0.34145806     0.09200
H1090       H  0.53598147  0.32964362  0.29965136     0.09100
H1091       H  0.58113487  0.37370889  0.32291160     0.09100
H1092       H  0.56973042  0.37705050  0.27278299     0.05900
C1093       C  0.91690627  0.02944462  0.20849265    -0.19900
C1094       C  0.92854860  0.49881686  0.20291891    -0.06500
C1095       C  0.90877626  0.46872060  0.17292231     0.14400
C1096       C  0.88092845  0.47238868  0.14731612    -0.19900
C1097       C  0.86912353  0.50295500  0.15261060    -0.06500
C1098       C  0.88612505  0.03082997  0.18484024     0.14400
C1099       C  0.87015714  0.05996029  0.19643006    -0.23300
H1100       H  0.93145554  0.05200043  0.23196261     0.15700
H1101       H  0.86785683  0.45064323  0.12307631     0.15700
C1102       C  0.91435258  0.43091214  0.16890744    -0.23200
H1103       H  0.88269925  0.07446905  0.22543499     0.05900
H1104       H  0.83487956  0.54169096  0.19881245     0.09200
H1105       H  0.88036219  0.08620087  0.17517596     0.09200
H1106       H  0.90934360  0.41488521  0.19772946     0.09100
H1107       H  0.94616463  0.94032901  0.15708829     0.09100
H1108       H  0.89102904  0.40744880  0.14821041     0.05900
C1109       C  0.97070140  0.38524331  0.20986292    -0.19900
C1110       C  0.00152907  0.42795922  0.20520216    -0.06500
C1111       C  0.53320221  0.43960317  0.17621755     0.14400
C1112       C  0.53096327  0.40923114  0.15064015    -0.19900
C1113       C  0.00000296  0.36662787  0.15469549    -0.06500
C1114       C  0.97060507  0.35415776  0.18608922     0.14400
C1115       C  0.94005064  0.30875713  0.19664603    -0.23300
H1116       H  0.94691846  0.37596391  0.23260009     0.15700
H1117       H  0.55361079  0.41924429  0.12681533     0.15700
C1118       C  0.57087796  0.48335723  0.17270516    -0.23200
H1119       H  0.94385984  0.30342455  0.22808489     0.05900
H1120       H  0.94560090  0.28624474  0.17997024     0.09200
H1121       H  0.90704992  0.30162385  0.19170375     0.09200
H1122       H  0.58537336  0.49388967  0.20190606     0.09100
H1123       H  0.56143231  0.00512245  0.15983661     0.09100
H1124       H  0.59568409  0.48445878  0.15317024     0.05900
C1125       C  0.64330335  0.11756580  0.18137442    -0.19900
C1126       C  0.62797760  0.13022249  0.14942645    -0.06500
C1127       C  0.58376324  0.11167159  0.14409810     0.14400
C1128       C  0.55641058  0.08300807  0.17210180    -0.19900
C1129       C  0.57151065  0.06974699  0.20378268    -0.06500
C1130       C  0.61575515  0.08631660  0.20770471     0.14400
C1131       C  0.63537696  0.07040973  0.23709083    -0.23300
H1132       H  0.67719908  0.13097504  0.18488674     0.15700
H1133       H  0.52259447  0.07018877  0.16876928     0.15700
C1134       C  0.56476634  0.11940198  0.10788446    -0.23200
H1135       H  0.65612169  0.06115935  0.22161154     0.05900
H1136       H  0.61176603  0.04215066  0.25337654     0.09200
H1137       H  0.65493974  0.09579552  0.25815560     0.09200
H1138       H  0.57860653  0.11381539  0.08128202     0.09100
H1139       H  0.57025729  0.15191571  0.10735715     0.09100
H1140       H  0.52990951  0.09783163  0.10667406     0.05900
C1141       C  0.93515767  0.40430648  0.81499125    -0.19900
C1142       C  0.92317742  0.42498045  0.78788391    -0.06500
C1143       C  0.87935364  0.41153519  0.78449142     0.14400
C1144       C  0.84995110  0.37938673  0.80940695    -0.19900
C1145       C  0.86283508  0.36126727  0.83881199    -0.06500
C1146       C  0.90660389  0.37458306  0.84174370     0.14400
C1147       C  0.92488709  0.36070983  0.87444623    -0.23300
H1148       H  0.96744551  0.41136941  0.81520521     0.15700
H1149       H  0.81662521  0.36937252  0.80666121     0.15700
C1150       C  0.86177646  0.43024271  0.75600891    -0.23200
H1151       H  0.95994348  0.38073157  0.87581515     0.05900
H1152       H  0.91800355  0.32805037  0.86979437     0.09200
H1153       H  0.91233440  0.36346439  0.90315749     0.09200
H1154       H  0.88626098  0.45567527  0.73798568     0.09100
H1155       H  0.84479048  0.94335722  0.77213140     0.09100
H1156       H  0.83914451  0.40528630  0.73598522     0.05900
C1157       C  0.53025702  0.11120225  0.79870962    -0.19900
C1158       C  0.99738912  0.06898430  0.80167112    -0.06500
C1159       C  0.96534531  0.05834664  0.83011461     0.14400
C1160       C  0.96714048  0.09017975  0.85411885    -0.19900
C1161       C  0.99861541  0.13285076  0.84919510    -0.06500
C1162       C  0.52949557  0.14346961  0.81964822     0.14400
C1163       C  0.56018468  0.18823763  0.80716915    -0.23300
H1164       H  0.55636057  0.11944961  0.77905169     0.15700
H1165       H  0.94372026  0.08148319  0.87708393     0.15700
C1166       C  0.92874974  0.01398261  0.83534475    -0.23200
H1167       H  0.55587414  0.19154626  0.77552474     0.05900
H1168       H  0.59322989  0.19574277  0.81258025     0.09200
H1169       H  0.55474807  0.21194608  0.82165653     0.09200
H1170       H  0.93991897  0.49308192  0.84703979     0.09100
H1171       H  0.91225979  0.00176400  0.80716140     0.09100
H1172       H  0.90504967  0.01257190  0.85652593     0.05900
C1173       C  0.55969088  0.47618889  0.82779497    -0.19900
C1174       C  0.57170670  0.50324374  0.79518715    -0.06500
C1175       C  0.61562502  0.03204247  0.78947469     0.14400
C1176       C  0.64551049  0.02808421  0.81249020    -0.19900
C1177       C  0.63298767  0.49920295  0.84396914    -0.06500
C1178       C  0.58920361  0.47434530  0.85266711     0.14400
C1179       C  0.57284396  0.44792279  0.88957104    -0.23300
H1180       H  0.52686258  0.45689539  0.83502109     0.15700
H1181       H  0.67899090  0.04935604  0.80714966     0.15700
C1182       C  0.63225148  0.06963377  0.76231515    -0.23200
H1183       H  0.53855635  0.43602321  0.89417575     0.05900
H1184       H  0.58984401  0.96719410  0.91545714     0.09200
H1185       H  0.57652071  0.41983768  0.88796553     0.09200
H1186       H  0.60684962  0.07408448  0.74965153     0.09100
H1187       H  0.65099829  0.56645501  0.73845592     0.09100
H1188       H  0.65321645  0.09877191  0.77892286     0.05900
C1189       C  0.88556473  0.40539865  0.63970800    -0.19900
C1190       C  0.86968563  0.36330096  0.65099298    -0.06500
C1191       C  0.88575293  0.35472755  0.68536750     0.14400
C1192       C  0.91754516  0.38850560  0.70681381    -0.19900
C1193       C  0.93106586  0.43094073  0.69741070    -0.06500
C1194       C  0.91452236  0.43909637  0.66278553     0.14400
C1195       C  0.92395589  0.48203625  0.64933720    -0.23300
H1196       H  0.87391215  0.41221681  0.61301050     0.15700
H1197       H  0.93112101  0.38145710  0.73188758     0.15700
C1198       C  0.86797462  0.31049723  0.70114403    -0.23200
H1199       H  0.89380772  0.48188889  0.64453140     0.05900
H1200       H  0.94192188  0.49043313  0.62137368     0.09200
H1201       H  0.94185385  0.00658637  0.67073844     0.09200
H1202       H  0.87581853  0.29151519  0.68156716     0.09100
H1203       H  0.83305368  0.29525168  0.70426768     0.09100
H1204       H  0.88117593  0.31035202  0.73044614     0.05900
C1205       C  0.53606281  0.11532584  0.70473026    -0.19900
C1206       C  0.99794438  0.07819990  0.71344979    -0.06500
C1207       C  0.95969384  0.07749805  0.70540706     0.14400
C1208       C  0.96020625  0.10806533  0.68029249    -0.19900
C1209       C  0.99856540  0.14322905  0.66725790    -0.06500
C1210       C  0.53654511  0.14930936  0.68528788     0.14400
C1211       C  0.57706727  0.19132837  0.68798106    -0.23300
H1212       H  0.56573547  0.11909153  0.71523759     0.15700
H1213       H  0.92981969  0.10312895  0.67119437     0.15700
C1214       C  0.91790050  0.04558801  0.72311325    -0.23200
H1215       H  0.58878233  0.19711473  0.71852857     0.05900
H1216       H  0.57240647  0.21801634  0.67982578     0.09200
H1217       H  0.60206422  0.19119641  0.66966327     0.09200
H1218       H  0.92131501  0.02407669  0.74333738     0.09100
H1219       H  0.90497172  0.56223291  0.74026997     0.09100
H1220       H  0.89484042  0.02698775  0.69988555     0.05900
C1221       C  0.58424499  0.47260378  0.71291061    -0.19900
C1222       C  0.57114350  0.00173887  0.70324337    -0.06500
C1223       C  0.58876694  0.02698124  0.66906635     0.14400
C1224       C  0.61611092  0.02083727  0.64509293    -0.19900
C1225       C  0.63049369  0.99322144  0.65548451    -0.06500
C1226       C  0.61485824  0.46926519  0.69051635     0.14400
C1227       C  0.63164829  0.44183743  0.70563529    -0.23300
H1228       H  0.57088440  0.45255111  0.73846745     0.15700
H1229       H  0.62778917  0.03942726  0.61841164     0.15700
C1230       C  0.58256402  0.06301114  0.65768844    -0.23200
H1231       H  0.61928942  0.42928710  0.73538815     0.05900
H1232       H  0.66667000  0.96046407  0.70741590     0.09200
H1233       H  0.62198748  0.41439798  0.68632820     0.09200
H1234       H  0.56662506  0.07002262  0.68076182     0.09100
H1235       H  0.56389096  0.55556629  0.63019406     0.09100
H1236       H  0.61381095  0.09207573  0.65333010     0.05900
C1237       C  0.99648851  0.49757436  0.78703485     0.45900
H1238       H  0.99511101  0.49421204  0.81930233    -0.03100
C1239       C  0.50054675  0.00619682  0.71145955     0.45900
H1240       H  0.50247538  0.00950524  0.67919589    -0.03100
C1241       C  0.95828160  0.96095389  0.76540508    -0.16800
C1242       C  0.99700366  0.53760159  0.77364577    -0.16600
C1243       C  0.53729133  0.00135240  0.76925981    -0.17000
C1244       C  0.96098845  0.96490801  0.72515282    -0.17000
C1245       C  0.49902181  0.54247158  0.73367548    -0.16500
C1246       C  0.53868442  0.50426084  0.72887387    -0.16800
O1247       O  0.74348187  0.64045885  0.04774633    -0.78100
C1248       C  0.75135116  0.57931997  0.93840276     0.83000
O1249       O  0.85929023  0.60683252  0.05014585    -0.79200
O1250       O  0.89134928  0.67839811  0.92000951    -0.80700
O1251       O  0.82885785  0.75247996  0.97324811    -0.80500
O1252       O  0.78906304  0.70922564  0.05481695    -0.79100
Zn1253     Zn  0.77868944  0.62048960  0.01880994     1.55700
O1254       O  0.82125143  0.71605165  0.91870396    -0.80500
Cd1255     Cd  0.83768530  0.72068703  0.01832607     1.59700
Cd1256     Cd  0.87896167  0.66250299  0.01967351     1.59600
O1257       O  0.89494684  0.75808289  0.04664142    -0.80500
O1258       O  0.83087460  0.66705014  0.99857617    -1.91000
Cd1259     Cd  0.83175421  0.66777833  0.93946469     1.59900
O1260       O  0.91766652  0.71239827  0.05434830    -0.80400
O1261       O  0.78246811  0.60911334  0.91963087    -0.79100
C1262       C  0.82210713  0.57953433  0.06139274     0.83400
C1263       C  0.75284467  0.67677037  0.06038646     0.83100
O1264       O  0.74597911  0.58160617  0.97493253    -0.78100
C1265       C  0.82108087  0.74638937  0.93678171     0.83900
O1266       O  0.79002463  0.58317561  0.05356614    -0.78100
C1267       C  0.92194431  0.74861377  0.05934346     0.84000
C1268       C  0.92145593  0.67774775  0.93872347     0.84400
O1269       O  0.91924425  0.66966007  0.97519063    -0.80600
C1270       C  0.83103530  0.83213469  0.86819986     0.03500
C1271       C  0.83148375  0.79584999  0.88133590    -0.12600
C1272       C  0.81097538  0.77574766  0.91617067     0.01000
C1273       C  0.78477868  0.78808602  0.93474676    -0.11100
C1274       C  0.77903553  0.82025193  0.91907602     0.03500
C1275       C  0.80289786  0.84288929  0.88618074    -0.10500
H1276       H  0.85027997  0.78516054  0.86629140     0.09100
H1277       H  0.76862431  0.77241748  0.96166975     0.06700
H1278       H  0.80137963  0.87016537  0.87618448     0.06500
O1279       O  0.66815900  0.92102650  0.97518955    -0.78100
C1280       C  0.57758406  0.82397803  0.06258399     0.83000
O1281       O  0.75555737  0.89936937  0.05346527    -0.79200
O1282       O  0.64296952  0.74857496  0.05315605    -0.80700
O1283       O  0.60817436  0.78403727  0.92379597    -0.80500
O1284       O  0.67564869  0.89269567  0.92035258    -0.79100
Zn1285     Zn  0.66068411  0.88222033  0.02027924     1.55700
O1286       O  0.58028251  0.74770589  0.97923055    -0.80500
Cd1287     Cd  0.66715828  0.83502590  0.94236018     1.59700
Cd1288     Cd  0.72255738  0.84400955  0.02168533     1.59600
O1289       O  0.71746926  0.82724765  0.92259708    -0.80500
O1290       O  0.66807265  0.83675158  0.00147072    -1.91000
Cd1291     Cd  0.62127646  0.78281270  0.02301835     1.59900
O1292       O  0.75782043  0.84063084  0.97601170    -0.80400
O1293       O  0.58242130  0.79229214  0.05884296    -0.79100
C1294       C  0.74406249  0.92520562  0.06461253     0.83400
C1295       C  0.67539245  0.92293748  0.93851239     0.83100
O1296       O  0.60400708  0.86020775  0.04843752    -0.78100
C1297       C  0.57826026  0.75295182  0.94259546     0.83900
O1298       O  0.70795489  0.92027451  0.05599659    -0.78100
C1299       C  0.75037518  0.83110961  0.93987756     0.84000
C1300       C  0.68006976  0.75802892  0.06402485     0.84400
O1301       O  0.71256580  0.79368978  0.05640315    -0.80600
C1302       C  0.65899684  0.66085811  0.12106306     0.03500
C1303       C  0.69025773  0.65374383  0.10491877    -0.12600
C1304       C  0.72041918  0.68322358  0.07899313     0.01000
C1305       C  0.71842900  0.71905350  0.06823668    -0.11100
C1306       C  0.68624342  0.72530156  0.08244295     0.03500
C1307       C  0.65754351  0.69707434  0.10999083    -0.10500
H1308       H  0.69122264  0.62555668  0.11266271     0.09100
H1309       H  0.74035676  0.74073644  0.04650428     0.06700
H1310       H  0.63429530  0.70348271  0.12268900     0.06500
C1311       C  0.66573832  0.00018169  0.87080657     0.03500
C1312       C  0.69682801  0.53888941  0.88687653    -0.12600
C1313       C  0.72157071  0.53956639  0.91858353     0.01000
C1314       C  0.71455877  0.00126959  0.93461534    -0.11100
C1315       C  0.68533581  0.96250285  0.91779296     0.03500
C1316       C  0.66271605  0.96234948  0.88451784    -0.10500
H1317       H  0.69963172  0.56822212  0.87670724     0.09100
H1318       H  0.73186637  0.00161190  0.96059197     0.06700
H1319       H  0.64045067  0.93256835  0.87127614     0.06500
C1320       C  0.99934468  0.83727412  0.12464221     0.03500
C1321       C  0.53788685  0.84189183  0.11095059    -0.12600
C1322       C  0.53806118  0.81681879  0.08056496     0.01000
C1323       C  0.99958521  0.78511602  0.06541312    -0.11100
C1324       C  0.96113533  0.78080462  0.07790692     0.03500
C1325       C  0.96113781  0.80786721  0.10653570    -0.10500
H1326       H  0.56782299  0.86514579  0.12360829     0.09100
H1327       H  0.99971612  0.76521656  0.04213858     0.06700
H1328       H  0.93153179  0.80569856  0.11494069     0.06500
C1329       C  0.99956418  0.66476672  0.87671689     0.03500
C1330       C  0.96137809  0.66212228  0.88873874    -0.12600
C1331       C  0.96128696  0.68750667  0.91903577     0.01000
C1332       C  0.99997076  0.71787163  0.93556835    -0.11100
C1333       C  0.53862044  0.72270498  0.92254092     0.03500
C1334       C  0.53808530  0.69507159  0.89423283    -0.10500
H1335       H  0.93144070  0.63843358  0.87642658     0.09100
H1336       H  0.99992605  0.73710618  0.95951474     0.06700
H1337       H  0.56745731  0.69613883  0.88699500     0.06500
C1338       C  0.83789155  0.00329776  0.12478065     0.03500
C1339       C  0.84479675  0.54102203  0.10729654    -0.12600
C1340       C  0.81495811  0.54086735  0.08135113     0.03200
C1341       C  0.77962442  0.00251483  0.07071396    -0.11100
C1342       C  0.77480416  0.96433898  0.08435012     0.03500
C1343       C  0.80295634  0.96479975  0.11240874    -0.10500
H1344       H  0.87378191  0.57032916  0.11283917     0.09100
H1345       H  0.75795547  0.00216886  0.04875146     0.06700
H1346       H  0.79809715  0.93506198  0.12381678     0.06500
O1347       O  0.91681515  0.66253074  0.52417534    -0.78100
C1348       C  0.82009924  0.57276842  0.43687459     0.83000
O1349       O  0.89487188  0.74959124  0.44692973    -0.79200
O1350       O  0.74267368  0.63586434  0.45081055    -0.80700
O1351       O  0.78080451  0.60118087  0.57932236    -0.80500
O1352       O  0.88881740  0.67089499  0.57912429    -0.79100
Zn1353     Zn  0.87816528  0.65500913  0.47920981     1.55700
O1354       O  0.74406326  0.57209379  0.52473360    -0.80500
Cd1355     Cd  0.83009015  0.66022035  0.55842413     1.59700
Cd1356     Cd  0.83924937  0.71494485  0.47868527     1.59600
O1357       O  0.82086895  0.70951720  0.57752010    -0.80500
O1358       O  0.83195586  0.66082983  0.49929234    -1.91000
Cd1359     Cd  0.77753573  0.61368991  0.47967856     1.59900
O1360       O  0.83427421  0.74931092  0.52357925    -0.80400
O1361       O  0.78776359  0.57647434  0.44244413    -0.79100
C1362       C  0.92126771  0.73899011  0.43522716     0.83400
C1363       C  0.91911341  0.67067998  0.56064879     0.83100
O1364       O  0.85662960  0.59937228  0.45023630    -0.78100
C1365       C  0.74997979  0.57049665  0.56137407     0.83900
O1366       O  0.91671949  0.70305675  0.44345201    -0.78100
C1367       C  0.82454763  0.74202709  0.55971899     0.84000
C1368       C  0.75307325  0.67267030  0.43827446     0.84400
O1369       O  0.78955510  0.70458321  0.44388848    -0.80600
C1370       C  0.83636246  0.82990203  0.62586125     0.03500
C1371       C  0.84259975  0.79828355  0.60954563    -0.12600
C1372       C  0.81543153  0.77173714  0.58037402     0.01000
C1373       C  0.78271791  0.77784323  0.56646889    -0.11100
C1374       C  0.77572504  0.80900837  0.58235266     0.03500
C1375       C  0.80191149  0.83417135  0.61277434    -0.10500
H1376       H  0.87048536  0.79654353  0.61690869     0.09100
H1377       H  0.76343791  0.75912289  0.54212809     0.06700
H1378       H  0.79765018  0.85931495  0.62403573     0.06500
O1379       O  0.63931982  0.74158332  0.44988478    -0.78100
C1380       C  0.57601473  0.74589820  0.55738011     0.83000
O1381       O  0.60308288  0.85537954  0.44908656    -0.79200
O1382       O  0.67250093  0.88429762  0.57953582    -0.80700
O1383       O  0.75295666  0.82818776  0.52557555    -0.80500
O1384       O  0.70900126  0.78560046  0.44529765    -0.79100
Zn1385     Zn  0.61855212  0.77595745  0.47809419     1.55700
O1386       O  0.71434545  0.81720632  0.57966870    -0.80500
Cd1387     Cd  0.71939427  0.83470094  0.48032891     1.59700
Cd1388     Cd  0.65878577  0.87488016  0.47985221     1.59600
O1389       O  0.75512948  0.89128834  0.45050759    -0.80500
O1390       O  0.66478309  0.82721600  0.49973633    -1.91000
Cd1391     Cd  0.66480996  0.82646976  0.55878313     1.59900
O1392       O  0.70924307  0.91432706  0.44553412    -0.80400
O1393       O  0.60593453  0.77587062  0.57680529    -0.79100
C1394       C  0.57655451  0.81871458  0.43667172     0.83400
C1395       C  0.67610699  0.75008243  0.43883895     0.83100
O1396       O  0.57847731  0.74196644  0.52069617    -0.78100
C1397       C  0.74617664  0.81923574  0.56189701     0.83900
O1398       O  0.58117836  0.78709884  0.44314828    -0.78100
C1399       C  0.74535671  0.91839478  0.43895947     0.84000
C1400       C  0.67101650  0.91437616  0.56167840     0.84400
O1401       O  0.66376057  0.91335229  0.52513063    -0.80600
C1402       C  0.66248122  0.49197249  0.62916270     0.03500
C1403       C  0.65523607  0.95355416  0.61298678    -0.12600
C1404       C  0.68073156  0.95352825  0.58231264     0.01000
C1405       C  0.71243234  0.49219290  0.56672568    -0.11100
C1406       C  0.72052812  0.53076836  0.58241900     0.03500
C1407       C  0.69648216  0.53039480  0.61450097    -0.10500
H1408       H  0.62776031  0.92404518  0.62164166     0.09100
H1409       H  0.73038303  0.49226627  0.54144470     0.06700
H1410       H  0.70189598  0.56018070  0.62592418     0.06500
C1411       C  0.99849401  0.66938705  0.63269130     0.03500
C1412       C  0.96021168  0.66520411  0.61756949    -0.12600
C1413       C  0.95932897  0.68195391  0.58072279     0.01000
C1414       C  0.99751376  0.70823012  0.56119487    -0.11100
C1415       C  0.53602998  0.71607299  0.57710810     0.03500
C1416       C  0.53594411  0.69428614  0.61069623    -0.10500
H1417       H  0.93034382  0.64719242  0.63253663     0.09100
H1418       H  0.99726704  0.72294013  0.53360968     0.06700
H1419       H  0.56523875  0.69547653  0.61744146     0.06500
C1420       C  0.99883688  0.83383536  0.37451220     0.03500
C1421       C  0.96037406  0.79882838  0.38749227    -0.12600
C1422       C  0.96041409  0.77049202  0.41521547     0.01000
C1423       C  0.99908524  0.77565647  0.42815917    -0.11100
C1424       C  0.53742870  0.81136648  0.41724855     0.03500
C1425       C  0.53705070  0.84107663  0.39150855    -0.10500
H1426       H  0.93034594  0.79387377  0.37660209     0.09100
H1427       H  0.99917997  0.75394675  0.44983061     0.06700
H1428       H  0.56633495  0.87008977  0.38557521     0.06500
C1429       C  0.65700325  0.65436074  0.38124356     0.03500
C1430       C  0.65169087  0.68714152  0.39579344    -0.12600
C1431       C  0.68191775  0.71713625  0.42096878     0.01000
C1432       C  0.71681905  0.71360389  0.43237015    -0.11100
C1433       C  0.72101058  0.67973488  0.41980252     0.03500
C1434       C  0.69203999  0.65107239  0.39314330    -0.10500
H1435       H  0.62416679  0.68927404  0.38756139     0.09100
H1436       H  0.73913624  0.73554414  0.45348742     0.06700
H1437       H  0.69633133  0.62580047  0.38229607     0.06500
C1438       C  0.83592691  0.99646961  0.37485066     0.03500
C1439       C  0.84016754  0.53456820  0.38860133    -0.12600
C1440       C  0.81335655  0.53407395  0.41794608     0.01000
C1441       C  0.78071984  0.99549752  0.43199819    -0.11100
C1442       C  0.77731011  0.95756446  0.42000522     0.03500
C1443       C  0.80585705  0.95818726  0.39245396    -0.10500
H1444       H  0.86446893  0.56461247  0.37683364     0.09100
H1445       H  0.75977380  0.99510468  0.45467612     0.06700
H1446       H  0.80500175  0.92910333  0.38536963     0.06500
C1447       C  0.00000038  0.99840151  0.21186550     0.45900
H1448       H  0.00031843  0.99867076  0.17947559    -0.03100
C1449       C  0.99853335  0.99823604  0.28747660     0.45900
H1450       H  0.99817857  0.99783078  0.31986769    -0.03100
C1451       C  0.53891385  0.53665896  0.22974599    -0.16800
C1452       C  0.96112024  0.99847908  0.22884377    -0.16600
C1453       C  0.99973636  0.96004835  0.23009740    -0.17000
C1454       C  0.53788176  0.53673010  0.26993504    -0.17000
C1455       C  0.96105128  0.99969075  0.26908648    -0.16500
C1456       C  0.99762136  0.95919699  0.27030837    -0.16800
C1457       C  0.88549670  0.47205310  0.28789713    -0.19900
C1458       C  0.92850064  0.00140658  0.29391046    -0.06500
C1459       C  0.93995821  0.03094238  0.32459098     0.14400
C1460       C  0.90911171  0.02736377  0.35072078    -0.19900
C1461       C  0.86629583  0.99747414  0.34552906    -0.06500
C1462       C  0.85402377  0.47069755  0.31244765     0.14400
C1463       C  0.80819416  0.44251664  0.30133776    -0.23300
H1464       H  0.87644074  0.44995833  0.26395109     0.15700
H1465       H  0.91872103  0.04844423  0.37554577     0.15700
C1466       C  0.98385790  0.06817570  0.32905348    -0.23200
H1467       H  0.79179579  0.41607869  0.32238317     0.05900
H1468       H  0.79197335  0.46119964  0.30019833     0.09200
H1469       H  0.80509027  0.92845140  0.27195336     0.09200
H1470       H  0.99472993  0.58431846  0.30045787     0.09100
H1471       H  0.00559675  0.05820653  0.34082495     0.09100
H1472       H  0.98472502  0.09168601  0.34990028     0.05900
C1473       C  0.61490134  0.63974097  0.32065516    -0.19900
C1474       C  0.62623833  0.62394446  0.35316082    -0.06500
C1475       C  0.60852320  0.57989661  0.35765743     0.14400
C1476       C  0.58271372  0.55337504  0.32809242    -0.19900
C1477       C  0.57012847  0.56884992  0.29624502    -0.06500
C1478       C  0.58547783  0.61275317  0.29313255     0.14400
C1479       C  0.57005514  0.63245715  0.26334340    -0.23300
H1480       H  0.62802116  0.67348958  0.31741203     0.15700
H1481       H  0.57058122  0.51974078  0.33098358     0.15700
C1482       C  0.61370345  0.55923433  0.39397732    -0.23200
H1483       H  0.55981069  0.65248499  0.27852758     0.05900
H1484       H  0.54231164  0.60899309  0.24658487     0.09200
H1485       H  0.59615962  0.65263629  0.24282687     0.09200
H1486       H  0.62902589  0.58140848  0.41848006     0.09100
H1487       H  0.63236088  0.54386998  0.38686364     0.09100
H1488       H  0.58199137  0.53477174  0.40481189     0.05900
C1489       C  0.96801613  0.87697962  0.35120674    -0.19900
C1490       C  0.99848891  0.86482282  0.34619577    -0.06500
C1491       C  0.52663898  0.88150284  0.31376763     0.14400
C1492       C  0.52640236  0.91297349  0.29029127    -0.19900
C1493       C  0.99640127  0.92557454  0.29596792    -0.06500
C1494       C  0.96549247  0.90568424  0.32571415     0.14400
C1495       C  0.92817438  0.91232891  0.32965938    -0.23300
H1496       H  0.94569487  0.86379494  0.37526710     0.15700
H1497       H  0.54951441  0.92743935  0.26697199     0.15700
C1498       C  0.55490343  0.86451228  0.30182170    -0.23200
H1499       H  0.90398938  0.88912409  0.35019858     0.05900
H1500       H  0.91261751  0.90824244  0.30076913     0.09200
H1501       H  0.93819162  0.94393093  0.34148241     0.09200
H1502       H  0.53591871  0.82962289  0.29954930     0.09100
H1503       H  0.58105672  0.87360215  0.32291043     0.09100
H1504       H  0.56975558  0.87707758  0.27277873     0.05900
C1505       C  0.91688773  0.52944827  0.20848207    -0.19900
C1506       C  0.92855739  0.99880760  0.20291744    -0.06500
C1507       C  0.90884724  0.96877743  0.17285827     0.14400
C1508       C  0.88104203  0.97249411  0.14723599    -0.19900
C1509       C  0.86922903  0.00305120  0.15255259    -0.06500
C1510       C  0.88603606  0.53075908  0.18487645     0.14400
C1511       C  0.86997565  0.55979955  0.19651849    -0.23300
H1512       H  0.93145673  0.55203148  0.23192692     0.15700
H1513       H  0.86800715  0.95079076  0.12296302     0.15700
C1514       C  0.91443773  0.93098096  0.16878540    -0.23200
H1515       H  0.88261844  0.57440445  0.22547033     0.05900
H1516       H  0.83504964  0.04195811  0.19858396     0.09200
H1517       H  0.87998206  0.58597095  0.17522054     0.09200
H1518       H  0.90941009  0.91490361  0.19758231     0.09100
H1519       H  0.94607305  0.44024229  0.15720486     0.09100
H1520       H  0.89113206  0.90755088  0.14805524     0.05900
C1521       C  0.97074628  0.88522410  0.20986435    -0.19900
C1522       C  0.00154283  0.92794788  0.20518731    -0.06500
C1523       C  0.53313975  0.93959528  0.17616723     0.14400
C1524       C  0.53090530  0.90922796  0.15059191    -0.19900
C1525       C  0.99999235  0.86663741  0.15463334    -0.06500
C1526       C  0.97063382  0.85415096  0.18606072     0.14400
C1527       C  0.94009422  0.80874476  0.19661298    -0.23300
H1528       H  0.94698899  0.87592876  0.23262854     0.15700
H1529       H  0.55355567  0.91924061  0.12676949     0.15700
C1530       C  0.57080990  0.98334914  0.17264794    -0.23200
H1531       H  0.94393831  0.80339971  0.22804004     0.05900
H1532       H  0.94562480  0.78623843  0.17990462     0.09200
H1533       H  0.90708738  0.80161145  0.19171184     0.09200
H1534       H  0.58532710  0.99386721  0.20184188     0.09100
H1535       H  0.56151168  0.50512837  0.15986563     0.09100
H1536       H  0.59560098  0.98446162  0.15308460     0.05900
C1537       C  0.64340051  0.61767058  0.18146041    -0.19900
C1538       C  0.62807455  0.63031567  0.14950219    -0.06500
C1539       C  0.58386049  0.61171651  0.14414252     0.14400
C1540       C  0.55650373  0.58303091  0.17212968    -0.19900
C1541       C  0.57159828  0.56977974  0.20382129    -0.06500
C1542       C  0.61584929  0.58638716  0.20776804     0.14400
C1543       C  0.63547746  0.57048268  0.23714941    -0.23300
H1544       H  0.67729717  0.63110722  0.18499168     0.15700
H1545       H  0.52268692  0.57018710  0.16877367     0.15700
C1546       C  0.56486959  0.61941484  0.10790706    -0.23200
H1547       H  0.65623636  0.56125218  0.22166700     0.05900
H1548       H  0.61186875  0.54221135  0.25342185     0.09200
H1549       H  0.65502673  0.59586215  0.25822485     0.09200
H1550       H  0.57876151  0.61386807  0.08131980     0.09100
H1551       H  0.57030240  0.65190730  0.10737888     0.09100
H1552       H  0.53002228  0.59779889  0.10666548     0.05900
C1553       C  0.93516932  0.90432991  0.81501290    -0.19900
C1554       C  0.92318464  0.92496509  0.78786431    -0.06500
C1555       C  0.87935834  0.91150726  0.78445896     0.14400
C1556       C  0.84995864  0.87937473  0.80938887    -0.19900
C1557       C  0.86284967  0.86129860  0.83882868    -0.06500
C1558       C  0.90662071  0.87464514  0.84179201     0.14400
C1559       C  0.92490850  0.86085668  0.87455982    -0.23300
H1560       H  0.96745185  0.91139100  0.81523956     0.15700
H1561       H  0.81662902  0.86933834  0.80662539     0.15700
C1562       C  0.86177145  0.93018055  0.75594918    -0.23200
H1563       H  0.95995895  0.88092302  0.87595251     0.05900
H1564       H  0.91807458  0.82820471  0.86996892     0.09200
H1565       H  0.91231232  0.86362883  0.90324057     0.09200
H1566       H  0.88625196  0.95561370  0.73792529     0.09100
H1567       H  0.84481667  0.44342735  0.77221386     0.09100
H1568       H  0.83915532  0.90520565  0.73593047     0.05900
C1569       C  0.53023884  0.61115561  0.79875591    -0.19900
C1570       C  0.99741621  0.56900185  0.80170783    -0.06500
C1571       C  0.96534913  0.55836298  0.83012243     0.14400
C1572       C  0.96711127  0.59019237  0.85410508    -0.19900
C1573       C  0.99860868  0.63285929  0.84921554    -0.06500
C1574       C  0.52947481  0.64342996  0.81967729     0.14400
C1575       C  0.56017560  0.68819276  0.80719640    -0.23300
H1576       H  0.55635071  0.61938862  0.77911657     0.15700
H1577       H  0.94366414  0.58148975  0.87704389     0.15700
C1578       C  0.92877878  0.51398968  0.83536305    -0.23200
H1579       H  0.55594039  0.69147753  0.77553275     0.05900
H1580       H  0.59321153  0.69571850  0.81269701     0.09200
H1581       H  0.55467922  0.71189855  0.82161160     0.09200
H1582       H  0.93986947  0.99301399  0.84689733     0.09100
H1583       H  0.91237426  0.50170037  0.80715790     0.09100
H1584       H  0.90500230  0.51258503  0.85644439     0.05900
C1585       C  0.55968511  0.97618775  0.82773353    -0.19900
C1586       C  0.57170383  0.00323928  0.79512451    -0.06500
C1587       C  0.61563394  0.53202955  0.78952743     0.14400
C1588       C  0.64551693  0.52805405  0.81253168    -0.19900
C1589       C  0.63298153  0.99923372  0.84392978    -0.06500
C1590       C  0.58919602  0.97436527  0.85262085     0.14400
C1591       C  0.57282829  0.94795961  0.88953425    -0.23300
H1592       H  0.52686022  0.95689126  0.83495498     0.15700
H1593       H  0.67899815  0.54931441  0.80718489     0.15700
C1594       C  0.63227792  0.56961863  0.76236429    -0.23200
H1595       H  0.53853906  0.93605911  0.89412835     0.05900
H1596       H  0.58986891  0.46714304  0.91549872     0.09200
H1597       H  0.57650571  0.91987345  0.88795317     0.09200
H1598       H  0.60688571  0.57406883  0.74967830     0.09100
H1599       H  0.65095623  0.06647269  0.73839096     0.09100
H1600       H  0.65323365  0.59875713  0.77897623     0.05900
C1601       C  0.88552323  0.90537910  0.63971962    -0.19900
C1602       C  0.86968472  0.86328131  0.65097691    -0.06500
C1603       C  0.88580456  0.85470919  0.68531885     0.14400
C1604       C  0.91758507  0.88849050  0.70677416    -0.19900
C1605       C  0.93108380  0.93092337  0.69738673    -0.06500
C1606       C  0.91450187  0.93907627  0.66278547     0.14400
C1607       C  0.92391762  0.98201232  0.64934978    -0.23300
H1608       H  0.87383420  0.91219785  0.61304494     0.15700
H1609       H  0.93117960  0.88144797  0.73183822     0.15700
C1610       C  0.86810612  0.81047090  0.70104659    -0.23200
H1611       H  0.89376304  0.98187426  0.64462610     0.05900
H1612       H  0.94180660  0.99038573  0.62134424     0.09200
H1613       H  0.94181449  0.50660001  0.67075979     0.09200
H1614       H  0.87600203  0.79155298  0.68143585     0.09100
H1615       H  0.83318072  0.79515959  0.70417797     0.09100
H1616       H  0.88132770  0.81032026  0.73033671     0.05900
C1617       C  0.53602302  0.61529900  0.70476827    -0.19900
C1618       C  0.99794550  0.57823749  0.71349559    -0.06500
C1619       C  0.95970113  0.57755171  0.70546469     0.14400
C1620       C  0.96022014  0.60813545  0.68036987    -0.19900
C1621       C  0.99858043  0.64329450  0.66733158    -0.06500
C1622       C  0.53649683  0.64926401  0.68529073     0.14400
C1623       C  0.57702061  0.69128612  0.68795071    -0.23300
H1624       H  0.56569329  0.61907862  0.71528821     0.15700
H1625       H  0.92983496  0.60321349  0.67129052     0.15700
C1626       C  0.91790384  0.54564083  0.72316164    -0.23200
H1627       H  0.58875860  0.69709744  0.71848926     0.05900
H1628       H  0.57235275  0.71796813  0.67978773     0.09200
H1629       H  0.60200571  0.69114120  0.66962435     0.09200
H1630       H  0.92131733  0.52414080  0.74340121     0.09100
H1631       H  0.90498224  0.06218134  0.74023896     0.09100
H1632       H  0.89485744  0.52702989  0.69992807     0.05900
C1633       C  0.58420749  0.97256030  0.71282922    -0.19900
C1634       C  0.57114487  0.50174915  0.70330354    -0.06500
C1635       C  0.58872568  0.52695813  0.66910088     0.14400
C1636       C  0.61606047  0.52080664  0.64512314    -0.19900
C1637       C  0.63048328  0.49322970  0.65553967    -0.06500
C1638       C  0.61482089  0.96921611  0.69043610     0.14400
C1639       C  0.63157335  0.94175158  0.70554311    -0.23300
H1640       H  0.57082290  0.95249135  0.73837271     0.15700
H1641       H  0.62770558  0.53936420  0.61842135     0.15700
C1642       C  0.58248566  0.56296099  0.65770051    -0.23200
H1643       H  0.61918326  0.92917426  0.73528189     0.05900
H1644       H  0.66674587  0.46056811  0.70747944     0.09200
H1645       H  0.62191448  0.91432668  0.68621785     0.09200
H1646       H  0.56659561  0.57000874  0.68078782     0.09100
H1647       H  0.56402564  0.05567008  0.63015392     0.09100
H1648       H  0.61372020  0.59202546  0.65327513     0.05900
loop_ 
_geom_bond_atom_site_label_1 
_geom_bond_atom_site_label_2 
_geom_bond_distance 
_geom_bond_site_symmetry_2 
_ccdc_geom_bond_type 
C1            H2   1.106       .  S
C1            C6   1.527   1_565  S
C1         C1243   1.550   1_565  S
C1          C417   1.555       .  S
C3            H4   1.106       .  S
C3          C421   1.563   1_455  S
C3          C832   1.544   1_455  S
C3          C422   1.547       .  S
C5          C413   1.555       .  S
C5            C8   1.380       .  D
C5          C318   1.503       .  S
C6          C833   1.373       .  D
C6          C334   1.499       .  S
C7         C1237   1.550   1_455  S
C7          C422   1.384       .  D
C7          C350   1.508       .  S
C8          C827   1.544       .  S
C8          C369   1.513       .  S
C9          C415   1.563   1_655  S
C9          C830   1.373       .  D
C9         C1206   1.496       .  S
C10         C415   1.547       .  S
C10         C419   1.384       .  D
C10         C398   1.515       .  S
O11          C27   1.276       .  A
O11         Zn17   2.035       .  S
C12          O28   1.273       .  A
C12          O25   1.280       .  A
C12          C77   1.477       .  S
O13          C26   1.274       .  A
O13         Cd20   2.066       .  S
O14          C32   1.282       .  A
O14         Cd23   2.118       .  S
O15          C29   1.273       .  A
O15         Cd19   2.046   1_556  S
O16          C27   1.271       .  A
O16         Cd19   2.034       .  S
Zn17         O28   2.004   1_554  S
Zn17         O30   2.001       .  S
Zn17         O22   1.933   1_554  S
O18          C29   1.280       .  A
O18         Cd23   2.111       .  S
Cd19         O21   2.077       .  S
Cd19         O22   1.980   1_554  S
Cd20         O24   2.042       .  S
Cd20         O33   2.040   1_554  S
Cd20         O22   1.981   1_554  S
O21          C31   1.274       .  A
O22         Cd23   2.019       .  S
Cd23         O25   2.109       .  S
O24          C31   1.271       .  A
C26          O30   1.273       .  A
C26         C104   1.470       .  S
C27          C68   1.468       .  S
C29          C36   1.477       .  S
C31          C88   1.466       .  S
C32          O33   1.271       .  A
C32          C95   1.475       .  S
C34         C321   1.496       .  S
C34          C35   1.410       .  A
C34          C39   1.417       .  A
C35          C36   1.398       .  A
C35          H40   1.080       .  S
C36          C37   1.403       .  A
C37          C38   1.402       .  A
C37          H41   1.085       .  S
C38          C63   1.480       .  S
C38          C39   1.405       .  A
C39          H42   1.083       .  S
O43          C59   1.275       .  A
O43         Zn49   2.013   1_556  S
C44          O60   1.278       .  A
C44          O57   1.269       .  A
C44          C86   1.467       .  S
O45          C58   1.276       .  A
O45         Cd52   2.078       .  S
O46          C64   1.273       .  A
O46         Cd55   2.062       .  S
O47          C61   1.282       .  A
O47         Cd51   2.120       .  S
O48          C59   1.280       .  A
O48         Cd51   2.112       .  S
Zn49         O60   2.044       .  S
Zn49         O62   2.001       .  S
Zn49         O54   1.935       .  S
O50          C61   1.272       .  A
O50         Cd55   2.053   1_556  S
Cd51         O53   2.111       .  S
Cd51         O54   2.020   1_556  S
Cd52         O56   2.070   1_554  S
Cd52         O65   2.060       .  S
Cd52         O54   1.993       .  S
O53          C63   1.281       .  A
O54         Cd55   1.989       .  S
Cd55         O57   2.037       .  S
O56          C63   1.276       .  A
C58          O62   1.272       .  A
C58         C106   1.471       .  S
C59          C79   1.482       .  S
C61          C97   1.478       .  S
C64          O65   1.273       .  A
C64          C70   1.467       .  S
C66         C302   1.480       .  S
C66          C67   1.408       .  A
C66          C71   1.406       .  A
C67          C68   1.399       .  A
C67          H72   1.084       .  S
C68          C69   1.400       .  A
C69          C70   1.396       .  A
C69          H73   1.085       .  S
C70          C71   1.398       .  A
C71          H74   1.082       .  S
C75         C353   1.493       .  S
C75          C80   1.413       .  A
C75         C488   1.411       .  A
C76          C77   1.401       .  A
C76         C487   1.411       .  A
C76          H81   1.084       .  S
C77         C490   1.404       .  A
C78          C79   1.404       .  A
C78         C489   1.404       .  A
C78          H82   1.085       .  S
C79          C80   1.402       .  A
C80          H83   1.082       .  S
C84         C289   1.484       .  S
C84          C89   1.408       .  A
C84         C909   1.412       .  A
C85          C86   1.394       .  A
C85         C908   1.412   1_455  A
C85          H90   1.083       .  S
C86         C911   1.397   1_455  A
C87          C88   1.400       .  A
C87         C910   1.397       .  A
C87          H91   1.085       .  S
C88          C89   1.399       .  A
C89          H92   1.083       .  S
C93         C337   1.493       .  S
C93          C94   1.411       .  A
C93         C922   1.414       .  A
C94          C95   1.399       .  A
C94          H99   1.083       .  S
C95          C96   1.406       .  A
C96         C921   1.403       .  A
C96         H100   1.085       .  S
C97          C98   1.400       .  A
C97         C920   1.403       .  A
C98         C917   1.414   1_455  A
C98         H101   1.083       .  S
C102        C273   1.489       .  S
C102        C107   1.412       .  A
C102        C515   1.408       .  A
C103        C104   1.401       .  A
C103        C514   1.408       .  A
C103        H108   1.081       .  S
C104        C517   1.400       .  A
C105        C106   1.398       .  A
C105        C516   1.400       .  A
C105        H109   1.085       .  S
C106        C107   1.398       .  A
C107        H110   1.083       .  S
O111        C127   1.276       .  A
O111       Zn117   2.008       .  S
C112        O128   1.278       .  A
C112        O125   1.271       .  A
C112        C204   1.469       .  S
O113        C126   1.275       .  A
O113       Cd120   2.076       .  S
O114        C132   1.276       .  A
O114       Cd123   2.071       .  S
O115        C129   1.281       .  A
O115       Cd119   2.121       .  S
O116        C127   1.279       .  A
O116       Cd119   2.100       .  S
Zn117       O128   2.044       .  S
Zn117       O130   2.014       .  S
Zn117       O122   1.934       .  S
O118        C129   1.275       .  A
O118       Cd123   2.071       .  S
Cd119       O121   2.109       .  S
Cd119       O122   2.020       .  S
Cd120       O124   2.058       .  S
Cd120       O133   2.039       .  S
Cd120       O122   1.990       .  S
O121        C131   1.281       .  A
O122       Cd123   1.985       .  S
Cd123       O125   2.041       .  S
O124        C131   1.274       .  A
C126        O130   1.273       .  A
C126        C186   1.475       .  S
C127        C177   1.479       .  S
C129        C170   1.486       .  S
C131        C136   1.475       .  S
C132        O133   1.270       .  A
C132        C197   1.463       .  S
C134        C366   1.492       .  S
C134        C135   1.410       .  A
C134        C139   1.416       .  A
C135        C136   1.401       .  A
C135        H140   1.082       .  S
C136        C137   1.404       .  A
C137        C138   1.405       .  A
C137        H141   1.085       .  S
C138        C161   1.482       .  S
C138        C139   1.402       .  A
C139        H142   1.084       .  S
O143        C159   1.275       .  A
O143       Zn149   2.021       .  S
C144        O160   1.271       .  A
C144        O157   1.281       .  A
C144        C179   1.473       .  S
O145        C158   1.274       .  A
O145       Cd152   2.072       .  S
O146        C164   1.282       .  A
O146       Cd155   2.124       .  S
O147        C161   1.273       .  A
O147       Cd151   2.057       .  S
O148        C159   1.271       .  A
O148       Cd151   2.041       .  S
Zn149       O160   1.989       .  S
Zn149       O162   2.001       .  S
Zn149       O154   1.937       .  S
O150        C161   1.282       .  A
O150       Cd155   2.124       .  S
Cd151       O153   2.072       .  S
Cd151       O154   1.987       .  S
Cd152       O156   2.041       .  S
Cd152       O165   2.048       .  S
Cd152       O154   1.985       .  S
O153        C163   1.275       .  A
O154       Cd155   2.017       .  S
Cd155       O157   2.102       .  S
O156        C163   1.272       .  A
C158        O162   1.272       .  A
C158        C188   1.472       .  S
C159        C195   1.467       .  S
C163        C206   1.465       .  S
C164        O165   1.272       .  A
C164        C168   1.479       .  S
C166        C401   1.497       .  S
C166        C171   1.418   1_565  A
C166        C579   1.413       .  A
C167        C168   1.404       .  A
C167        C578   1.413       .  A
C167        H172   1.081       .  S
C168        C581   1.406       .  A
C169        C170   1.403   1_565  A
C169        C580   1.406       .  A
C169        H173   1.085       .  S
C170        C171   1.402       .  A
C171        H174   1.084       .  S
C175        C385   1.518       .  S
C175        C176   1.424       .  A
C175       C1004   1.417       .  A
C176        C177   1.404       .  A
C176        H181   1.077       .  S
C177        C178   1.400       .  A
C178       C1003   1.396       .  A
C178        H182   1.085       .  S
C179        C180   1.393       .  A
C179       C1002   1.396   1_455  A
C180        C999   1.417   1_455  A
C180        H183   1.074       .  S
C184        C254   1.492       .  S
C184        C185   1.413       .  A
C184       C1013   1.409       .  A
C185        C186   1.402       .  A
C185        H190   1.083       .  S
C186        C187   1.399       .  A
C187       C1012   1.400       .  A
C187        H191   1.085       .  S
C188        C189   1.401       .  A
C188       C1011   1.401   1_455  A
C189       C1008   1.409   1_455  A
C189        H192   1.081       .  S
C193        C238   1.475       .  S
C193        C194   1.406       .  A
C193        C198   1.404       .  A
C194        C195   1.398       .  A
C194        H199   1.084       .  S
C195        C196   1.400       .  A
C196        C197   1.398       .  A
C196        H200   1.085       .  S
C197        C198   1.394       .  A
C198        H201   1.084       .  S
C202        C225   1.483       .  S
C202        C207   1.406       .  A
C202        C615   1.413       .  A
C203        C204   1.397       .  A
C203        C614   1.413   1_545  A
C203        H208   1.084       .  S
C204        C617   1.396   1_545  A
C205        C206   1.398       .  A
C205        C616   1.396       .  A
C205        H209   1.085       .  S
C206        C207   1.398       .  A
C207        H210   1.081       .  S
C211        H212   1.106       .  S
C211        C217   1.531       .  S
C211        C216   1.537       .  S
C211       C1451   1.536       .  S
C213        H214   1.106       .  S
C213        C219   1.531       .  S
C213        C220   1.537       .  S
C213       C1454   1.537       .  S
C215       C1447   1.535   1_545  S
C215        C218   1.373       .  D
C215        C305   1.488       .  S
C216        C219   1.376       .  D
C216        C270   1.487       .  S
C217        C220   1.375       .  D
C217        C286   1.487       .  S
C218       C1449   1.538   1_445  S
C218        C241   1.482       .  S
C219        C222   1.490       .  S
C220        C257   1.491       .  S
C221        C226   1.405       .  A
C221        C634   1.404   1_565  A
C221        H228   1.084       .  S
C222        C223   1.416       .  A
C222        C633   1.404       .  A
C223        C224   1.392       .  A
C223        C230   1.502       .  S
C224        C225   1.398       .  A
C224        H229   1.084       .  S
C225        C638   1.419       .  A
C226        C637   1.419       .  A
C226        C227   1.508       .  S
C227        H231   1.106       .  S
C227        H232   1.110       .  S
C227        H645   1.111       .  S
C230        H235   1.103       .  S
C230        H236   1.111       .  S
C230        H646   1.105       .  S
H233        C639   1.111       .  S
H234        C642   1.105       .  S
C237        C238   1.404       .  A
C237        C242   1.399       .  A
C237        H244   1.085       .  S
C238        C239   1.414       .  A
C239        C240   1.393       .  A
C239        C246   1.510       .  S
C240        C241   1.403       .  A
C240        H245   1.085       .  S
C241        C242   1.418       .  A
C242        C243   1.508       .  S
C243        H247   1.111       .  S
C243        H248   1.105       .  S
C243        H249   1.110       .  S
C246        H250   1.107       .  S
C246        H251   1.110       .  S
C246        H252   1.111       .  S
C253        C254   1.404       .  A
C253        C258   1.400       .  A
C253        H260   1.084       .  S
C254       C1079   1.420       .  A
C255        C256   1.405       .  A
C255       C1078   1.420   1_455  A
C255        C262   1.509       .  S
C256       C1081   1.403   1_455  A
C256        H261   1.084       .  S
C257        C258   1.416       .  A
C257       C1080   1.403       .  A
C258        C259   1.508       .  S
C259        H263   1.111       .  S
C259        H264   1.110       .  S
C259        H265   1.105       .  S
C262        H266   1.110       .  S
C262        H267   1.106       .  S
C262        H268   1.111       .  S
C269        C274   1.405       .  A
C269        C682   1.403   1_545  A
C269        H276   1.084       .  S
C270        C271   1.414       .  A
C270        C681   1.403       .  A
C271        C272   1.397       .  A
C271        C278   1.508       .  S
C272        C273   1.403       .  A
C272        H277   1.084       .  S
C273        C686   1.420       .  A
C274        C685   1.420       .  A
C274        C275   1.509       .  S
C275        H279   1.111       .  S
C275        H281   1.106       .  S
C275        H692   1.110       .  S
C278        H282   1.110       .  S
C278        H284   1.111       .  S
C278        H695   1.105       .  S
H280        C687   1.110       .  S
H283        C690   1.105       .  S
C285        C286   1.403       .  A
C285        C290   1.404       .  A
C285        H292   1.084       .  S
C286       C1111   1.415       .  A
C287        C288   1.391       .  A
C287       C1110   1.415       .  A
C287        C294   1.503       .  S
C288       C1113   1.399       .  A
C288        H293   1.084       .  S
C289        C290   1.420       .  A
C289       C1112   1.399       .  A
C290        C291   1.507       .  S
C291        H295   1.111       .  S
C291        H296   1.107       .  S
C291        H297   1.110       .  S
C294        H298   1.105       .  S
C294        H300   1.111       .  S
C294        H711   1.104       .  S
H299        C706   1.104   1_545  S
C301        C302   1.404       .  A
C301        C306   1.401       .  A
C301        H308   1.085       .  S
C302        C303   1.414       .  A
C303        C304   1.397       .  A
C303        C310   1.510       .  S
C304        C305   1.404       .  A
C304        H309   1.084       .  S
C305        C306   1.418       .  A
C306        C307   1.508       .  S
C307        H311   1.111       .  S
C307        H312   1.105       .  S
C307        H313   1.110       .  S
C310        H314   1.110       .  S
C310        H315   1.106       .  S
C310        H316   1.111       .  S
C317        C318   1.396       .  A
C317        C322   1.399       .  A
C317        H324   1.073       .  S
C318        C319   1.423       .  A
C319        C320   1.408       .  A
C319        C326   1.504       .  S
C320        C321   1.406       .  A
C320        H325   1.084       .  S
C321        C322   1.421       .  A
C322        C323   1.511       .  S
C323        H327   1.111       .  S
C323        H328   1.107       .  S
C323        H329   1.110       .  S
C326        H330   1.097       .  S
C326        H332   1.111       .  S
C326        H743   1.110       .  S
H331        C738   1.110       .  S
C333        C338   1.400       .  A
C333       C1158   1.403   1_455  A
C333        H340   1.077       .  S
C334        C335   1.416       .  A
C334       C1157   1.403       .  A
C335        C336   1.407       .  A
C335        C342   1.508       .  S
C336        C337   1.409       .  A
C336        H341   1.083       .  S
C337       C1162   1.414       .  A
C338       C1161   1.414   1_455  A
C338        C339   1.508       .  S
C339        H343   1.106       .  S
C339        H344   1.110       .  S
C339        H345   1.106       .  S
C342        H347   1.105       .  S
C342        H348   1.111       .  S
C342        H758   1.106   1_545  S
H346        C754   1.106       .  S
C349        C350   1.402       .  A
C349        C354   1.399       .  A
C349        H356   1.070       .  S
C350        C763   1.421       .  A
C351        C352   1.409       .  A
C351        C762   1.421       .  A
C351        C358   1.507       .  S
C352        C765   1.407   1_545  A
C352        H357   1.084       .  S
C353        C354   1.417       .  A
C353        C764   1.407       .  A
C354        C355   1.512       .  S
C355        H359   1.111       .  S
C355        H361   1.107       .  S
C355        H772   1.110       .  S
C358        H362   1.107       .  S
C358        H364   1.111       .  S
C358        H775   1.110       .  S
H360        C767   1.110       .  S
H363        C770   1.110       .  S
C365        C366   1.401       .  A
C365        C370   1.401       .  A
C365        H372   1.085       .  S
C366        C367   1.414       .  A
C367        C368   1.407       .  A
C367        C374   1.508       .  S
C368        C369   1.411       .  A
C368        H373   1.082       .  S
C369        C370   1.424       .  A
C370        C371   1.502       .  S
C371        H375   1.111       .  S
C371        H376   1.110       .  S
C371        H789   1.090       .  S
C374        H378   1.106       .  S
C374        H379   1.110       .  S
C374        H380   1.111       .  S
H377        C783   1.090   1_545  S
C381        C386   1.401       .  A
C381       C1206   1.401   1_455  A
C381        H388   1.082       .  S
C382        C833   1.496       .  S
C382        C383   1.411       .  A
C382       C1205   1.401       .  A
C383        C384   1.400       .  A
C383        C390   1.504       .  S
C384        C385   1.414       .  A
C384        H389   1.076       .  S
C385       C1210   1.427       .  A
C386       C1209   1.427   1_455  A
C386        C387   1.510       .  S
C387        H391   1.107       .  S
C387        H392   1.109       .  S
C387        H393   1.110       .  S
C390        H394   1.099       .  S
C390        H396   1.109       .  S
C390        H807   1.110       .  S
H395        C802   1.110       .  S
C397        C402   1.413       .  A
C397        C810   1.411       .  A
C397        H404   1.083       .  S
C398        C399   1.422       .  A
C398        C809   1.411   1_545  A
C399        C400   1.398       .  A
C399        C406   1.499       .  S
C400        C401   1.400   1_545  A
C400        H405   1.085       .  S
C401        C814   1.417       .  A
C402        C813   1.417       .  A
C402        C403   1.507       .  S
C403        H407   1.111       .  S
C403        H409   1.106       .  S
C403        H820   1.110       .  S
C406        H410   1.087       .  S
C406        H412   1.111       .  S
C406        H823   1.110       .  S
H408        C815   1.110       .  S
H411        C818   1.110       .  S
C413        H414   1.106       .  S
C413        C831   1.550       .  S
C413        C418   1.527       .  S
C415        H416   1.106       .  S
C415       C1244   1.544   1_445  S
C417        C420   1.380       .  D
C417        C730   1.503       .  S
C418       C1245   1.373       .  D
C418        C746   1.499       .  S
C419        C825   1.550   1_445  S
C419        C762   1.508       .  S
C420       C1239   1.544   1_565  S
C420        C781   1.512       .  S
C421       C1242   1.373       .  D
C421       C1618   1.496       .  S
C422        C810   1.515       .  S
O423        C439   1.276       .  A
O423       Zn429   2.034       .  S
C424        O440   1.273       .  A
C424        O437   1.280       .  A
C424        C489   1.477       .  S
O425        C438   1.274       .  A
O425       Cd432   2.065       .  S
O426        C444   1.282       .  A
O426       Cd435   2.117       .  S
O427        C441   1.273       .  A
O427       Cd431   2.046   1_556  S
O428        C439   1.271       .  A
O428       Cd431   2.034       .  S
Zn429       O440   2.004   1_554  S
Zn429       O442   2.001       .  S
Zn429       O434   1.933   1_554  S
O430        C441   1.280       .  A
O430       Cd435   2.111       .  S
Cd431       O433   2.077       .  S
Cd431       O434   1.980   1_554  S
Cd432       O436   2.042       .  S
Cd432       O445   2.039   1_554  S
Cd432       O434   1.981   1_554  S
O433        C443   1.274       .  A
O434       Cd435   2.019       .  S
Cd435       O437   2.108       .  S
O436        C443   1.271       .  A
C438        O442   1.273       .  A
C438        C516   1.470       .  S
C439        C480   1.467       .  S
C441        C448   1.477       .  S
C443        C500   1.466       .  S
C444        O445   1.271       .  A
C444        C507   1.474       .  S
C446        C733   1.496       .  S
C446        C447   1.410       .  A
C446        C451   1.417       .  A
C447        C448   1.398       .  A
C447        H452   1.080       .  S
C448        C449   1.403       .  A
C449        C450   1.402       .  A
C449        H453   1.085       .  S
C450        C475   1.480       .  S
C450        C451   1.405       .  A
C451        H454   1.083       .  S
O455        C471   1.275       .  A
O455       Zn461   2.013   1_556  S
C456        O472   1.278       .  A
C456        O469   1.269       .  A
C456        C498   1.467       .  S
O457        C470   1.276       .  A
O457       Cd464   2.078       .  S
O458        C476   1.273       .  A
O458       Cd467   2.062       .  S
O459        C473   1.282       .  A
O459       Cd463   2.120       .  S
O460        C471   1.280       .  A
O460       Cd463   2.112       .  S
Zn461       O472   2.044       .  S
Zn461       O474   2.001       .  S
Zn461       O466   1.935       .  S
O462        C473   1.272       .  A
O462       Cd467   2.053   1_556  S
Cd463       O465   2.111       .  S
Cd463       O466   2.020   1_556  S
Cd464       O468   2.070   1_554  S
Cd464       O477   2.059       .  S
Cd464       O466   1.993       .  S
O465        C475   1.281       .  A
O466       Cd467   1.989       .  S
Cd467       O469   2.037       .  S
O468        C475   1.276       .  A
C470        O474   1.272       .  A
C470        C518   1.471       .  S
C471        C491   1.482       .  S
C473        C509   1.478       .  S
C476        O477   1.273       .  A
C476        C482   1.467       .  S
C478        C714   1.480       .  S
C478        C479   1.408       .  A
C478        C483   1.406       .  A
C479        C480   1.399       .  A
C479        H484   1.084       .  S
C480        C481   1.400       .  A
C481        C482   1.396       .  A
C481        H485   1.085       .  S
C482        C483   1.398       .  A
C483        H486   1.082       .  S
C487        C765   1.493   1_545  S
C487        C492   1.413   1_545  A
C488        C489   1.401       .  A
C488        H493   1.084       .  S
C490        C491   1.405   1_545  A
C490        H494   1.085       .  S
C491        C492   1.402       .  A
C492        H495   1.082       .  S
C496        C701   1.484       .  S
C496       C1321   1.412       .  A
C496        C501   1.408       .  A
C497       C1320   1.412   1_455  A
C497        C498   1.394       .  A
C497        H502   1.083       .  S
C498       C1323   1.397   1_455  A
C499       C1322   1.397       .  A
C499        C500   1.400       .  A
C499        H503   1.085       .  S
C500        C501   1.399       .  A
C501        H504   1.083       .  S
C505        C749   1.493       .  S
C505        C506   1.411       .  A
C505       C1334   1.414       .  A
C506        C507   1.399       .  A
C506        H511   1.083       .  S
C507        C508   1.406       .  A
C508       C1333   1.403       .  A
C508        H512   1.085       .  S
C509       C1332   1.403   1_455  A
C509        C510   1.400       .  A
C510       C1329   1.414   1_455  A
C510        H513   1.083       .  S
C514        C685   1.489       .  S
C514        C519   1.412   1_545  A
C515        C516   1.401       .  A
C515        H520   1.081       .  S
C517        C518   1.398   1_545  A
C517        H521   1.085       .  S
C518        C519   1.398       .  A
C519        H522   1.083       .  S
O523        C539   1.276       .  A
O523       Zn529   2.008       .  S
C524        O540   1.278       .  A
C524        O537   1.271       .  A
C524        C616   1.469       .  S
O525        C538   1.275       .  A
O525       Cd532   2.076       .  S
O526        C544   1.276       .  A
O526       Cd535   2.070       .  S
O527        C541   1.281       .  A
O527       Cd531   2.121       .  S
O528        C539   1.279       .  A
O528       Cd531   2.099       .  S
Zn529       O540   2.044       .  S
Zn529       O542   2.014       .  S
Zn529       O534   1.934       .  S
O530        C541   1.275       .  A
O530       Cd535   2.071       .  S
Cd531       O533   2.109       .  S
Cd531       O534   2.020       .  S
Cd532       O536   2.058       .  S
Cd532       O545   2.038       .  S
Cd532       O534   1.990       .  S
O533        C543   1.281       .  A
O534       Cd535   1.985       .  S
Cd535       O537   2.041       .  S
O536        C543   1.274       .  A
C538        O542   1.273       .  A
C538        C598   1.475       .  S
C539        C589   1.479       .  S
C541        C582   1.486       .  S
C543        C548   1.475       .  S
C544        O545   1.270       .  A
C544        C609   1.463       .  S
C546        C778   1.492       .  S
C546        C547   1.410       .  A
C546        C551   1.416       .  A
C547        C548   1.401       .  A
C547        H552   1.082       .  S
C548        C549   1.404       .  A
C549        C550   1.405       .  A
C549        H553   1.085       .  S
C550        C573   1.482       .  S
C550        C551   1.402       .  A
C551        H554   1.084       .  S
O555        C571   1.275       .  A
O555       Zn561   2.021       .  S
C556        O572   1.271       .  A
C556        O569   1.281       .  A
C556        C591   1.473       .  S
O557        C570   1.274       .  A
O557       Cd564   2.072       .  S
O558        C576   1.282       .  A
O558       Cd567   2.123       .  S
O559        C573   1.273       .  A
O559       Cd563   2.057       .  S
O560        C571   1.271       .  A
O560       Cd563   2.041       .  S
Zn561       O572   1.990       .  S
Zn561       O574   2.001       .  S
Zn561       O566   1.937       .  S
O562        C573   1.282       .  A
O562       Cd567   2.124       .  S
Cd563       O565   2.073       .  S
Cd563       O566   1.987       .  S
Cd564       O568   2.041       .  S
Cd564       O577   2.047       .  S
Cd564       O566   1.985       .  S
O565        C575   1.275       .  A
O566       Cd567   2.017       .  S
Cd567       O569   2.102       .  S
O568        C575   1.272       .  A
C570        O574   1.272       .  A
C570        C600   1.472       .  S
C571        C607   1.467       .  S
C575        C618   1.465       .  S
C576        O577   1.272       .  A
C576        C580   1.479       .  S
C578        C813   1.497       .  S
C578        C583   1.418       .  A
C579        C580   1.404       .  A
C579        H584   1.081       .  S
C581        C582   1.403       .  A
C581        H585   1.085       .  S
C582        C583   1.402       .  A
C583        H586   1.084       .  S
C587        C797   1.518       .  S
C587        C588   1.424       .  A
C587       C1416   1.417       .  A
C588        C589   1.404       .  A
C588        H593   1.077       .  S
C589        C590   1.400       .  A
C590       C1415   1.396       .  A
C590        H594   1.085       .  S
C591       C1414   1.396   1_455  A
C591        C592   1.393       .  A
C592       C1411   1.417   1_455  A
C592        H595   1.074       .  S
C596        C666   1.492       .  S
C596        C597   1.413       .  A
C596       C1425   1.409       .  A
C597        C598   1.402       .  A
C597        H602   1.083       .  S
C598        C599   1.399       .  A
C599       C1424   1.400       .  A
C599        H603   1.085       .  S
C600       C1423   1.401   1_455  A
C600        C601   1.401       .  A
C601       C1420   1.409   1_455  A
C601        H604   1.081       .  S
C605        C650   1.475       .  S
C605        C606   1.406       .  A
C605        C610   1.404       .  A
C606        C607   1.398       .  A
C606        H611   1.084       .  S
C607        C608   1.400       .  A
C608        C609   1.398       .  A
C608        H612   1.085       .  S
C609        C610   1.394       .  A
C610        H613   1.084       .  S
C614        C637   1.483       .  S
C614        C619   1.406       .  A
C615        C616   1.397       .  A
C615        H620   1.084       .  S
C617        C618   1.398       .  A
C617        H621   1.085       .  S
C618        C619   1.398       .  A
C619        H622   1.081       .  S
C623        H624   1.106       .  S
C623        C629   1.531       .  S
C623        C628   1.537       .  S
C623       C1039   1.535   1_565  S
C625        H626   1.106       .  S
C625        C631   1.531       .  S
C625       C1042   1.537   1_565  S
C625        C632   1.537       .  S
C627       C1035   1.536       .  S
C627        C630   1.373       .  D
C627        C717   1.488       .  S
C628        C631   1.376       .  D
C628        C682   1.487       .  S
C629        C632   1.375       .  D
C629        C698   1.487       .  S
C630       C1037   1.537   1_455  S
C630        C653   1.482       .  S
C631        C634   1.489   1_565  S
C632        C669   1.491       .  S
C633        C638   1.405       .  A
C633        H640   1.084       .  S
C634        C635   1.416       .  A
C635        C636   1.392       .  A
C635        C642   1.502       .  S
C636        C637   1.398   1_545  A
C636        H641   1.084       .  S
C638        C639   1.508       .  S
C639        H643   1.106       .  S
C639        H644   1.110       .  S
C642        H647   1.103       .  S
C642        H648   1.111       .  S
C649        C650   1.404       .  A
C649        C654   1.399       .  A
C649        H656   1.085       .  S
C650        C651   1.414       .  A
C651        C652   1.393       .  A
C651        C658   1.510       .  S
C652        C653   1.403       .  A
C652        H657   1.085       .  S
C653        C654   1.418       .  A
C654        C655   1.508       .  S
C655        H659   1.111       .  S
C655        H660   1.105       .  S
C655        H661   1.110       .  S
C658        H662   1.107       .  S
C658        H663   1.110       .  S
C658        H664   1.111       .  S
C665        C666   1.404       .  A
C665        C670   1.400       .  A
C665        H672   1.084       .  S
C666       C1491   1.420       .  A
C667       C1490   1.420   1_455  A
C667        C668   1.405       .  A
C667        C674   1.509       .  S
C668       C1493   1.403   1_455  A
C668        H673   1.084       .  S
C669       C1492   1.403       .  A
C669        C670   1.416       .  A
C670        C671   1.508       .  S
C671        H675   1.111       .  S
C671        H676   1.110       .  S
C671        H677   1.105       .  S
C674        H678   1.110       .  S
C674        H679   1.106       .  S
C674        H680   1.111       .  S
C681        C686   1.405       .  A
C681        H688   1.084       .  S
C682        C683   1.414       .  A
C683        C684   1.397       .  A
C683        C690   1.508       .  S
C684        C685   1.403   1_565  A
C684        H689   1.084       .  S
C686        C687   1.509       .  S
C687        H691   1.111       .  S
C687        H693   1.106       .  S
C690        H694   1.110       .  S
C690        H696   1.111       .  S
C697        C698   1.403       .  A
C697        C702   1.404       .  A
C697        H704   1.084       .  S
C698       C1523   1.415       .  A
C699       C1522   1.415       .  A
C699        C700   1.391       .  A
C699        C706   1.503       .  S
C700       C1525   1.399   1_455  A
C700        H705   1.084       .  S
C701       C1524   1.399       .  A
C701        C702   1.420       .  A
C702        C703   1.507       .  S
C703        H707   1.111       .  S
C703        H708   1.107       .  S
C703        H709   1.110       .  S
C706        H710   1.105       .  S
C706        H712   1.111       .  S
C713        C714   1.404       .  A
C713        C718   1.401       .  A
C713        H720   1.085       .  S
C714        C715   1.414       .  A
C715        C716   1.397       .  A
C715        C722   1.510       .  S
C716        C717   1.405       .  A
C716        H721   1.084       .  S
C717        C718   1.418       .  A
C718        C719   1.508       .  S
C719        H723   1.111       .  S
C719        H724   1.105       .  S
C719        H725   1.110       .  S
C722        H726   1.110       .  S
C722        H727   1.106       .  S
C722        H728   1.111       .  S
C729        C730   1.396       .  A
C729        C734   1.399       .  A
C729        H736   1.073       .  S
C730        C731   1.423       .  A
C731        C732   1.408       .  A
C731        C738   1.504       .  S
C732        C733   1.406       .  A
C732        H737   1.084       .  S
C733        C734   1.421       .  A
C734        C735   1.511       .  S
C735        H739   1.111       .  S
C735        H740   1.107       .  S
C735        H741   1.110       .  S
C738        H742   1.097       .  S
C738        H744   1.111       .  S
C745       C1570   1.403   1_455  A
C745        C750   1.400       .  A
C745        H752   1.078       .  S
C746       C1569   1.403       .  A
C746        C747   1.416       .  A
C747        C748   1.407       .  A
C747        C754   1.508       .  S
C748        C749   1.409       .  A
C748        H753   1.083       .  S
C749       C1574   1.414       .  A
C750       C1573   1.414   1_455  A
C750        C751   1.508       .  S
C751        H755   1.106       .  S
C751        H756   1.110       .  S
C751        H757   1.106       .  S
C754        H759   1.105       .  S
C754        H760   1.111       .  S
C761        C762   1.402   1_565  A
C761        C766   1.399       .  A
C761        H768   1.069       .  S
C763        C764   1.409       .  A
C763        C770   1.507       .  S
C764        H769   1.084       .  S
C765        C766   1.417       .  A
C766        C767   1.512       .  S
C767        H771   1.111       .  S
C767        H773   1.107       .  S
C770        H774   1.107       .  S
C770        H776   1.111       .  S
C777        C778   1.401       .  A
C777        C782   1.401       .  A
C777        H784   1.085       .  S
C778        C779   1.414       .  A
C779        C780   1.407       .  A
C779        C786   1.508       .  S
C780        C781   1.411       .  A
C780        H785   1.082       .  S
C781        C782   1.424       .  A
C782        C783   1.502       .  S
C783        H787   1.111       .  S
C783        H788   1.110       .  S
C786        H790   1.106       .  S
C786        H791   1.110       .  S
C786        H792   1.111       .  S
C793       C1618   1.401   1_455  A
C793        C798   1.401       .  A
C793        H800   1.082       .  S
C794       C1245   1.496       .  S
C794       C1617   1.401       .  A
C794        C795   1.411       .  A
C795        C796   1.400       .  A
C795        C802   1.503       .  S
C796        C797   1.414       .  A
C796        H801   1.076       .  S
C797       C1622   1.427       .  A
C798       C1621   1.427   1_455  A
C798        C799   1.510       .  S
C799        H803   1.107       .  S
C799        H804   1.109       .  S
C799        H805   1.110       .  S
C802        H806   1.099       .  S
C802        H808   1.109       .  S
C809        C814   1.413       .  A
C809        H816   1.083       .  S
C810        C811   1.422       .  A
C811        C812   1.398       .  A
C811        C818   1.499       .  S
C812        C813   1.400       .  A
C812        H817   1.085       .  S
C814        C815   1.507       .  S
C815        H819   1.111       .  S
C815        H821   1.106       .  S
C818        H822   1.087       .  S
C818        H824   1.111       .  S
C825        H826   1.106       .  S
C825        C830   1.527   1_565  S
C825       C1241   1.555       .  S
C827        H828   1.106       .  S
C827       C1245   1.563       .  S
C827       C1246   1.547       .  S
C829       C1237   1.555       .  S
C829        C832   1.380       .  D
C829       C1142   1.503       .  S
C830       C1158   1.499       .  S
C831       C1246   1.384       .  D
C831       C1174   1.508       .  S
C832       C1193   1.512       .  S
C833       C1239   1.563       .  S
C834       C1239   1.547       .  S
C834       C1243   1.384       .  D
C834       C1222   1.515       .  S
O835        C851   1.276       .  A
O835       Zn841   2.035       .  S
C836        O852   1.273       .  A
C836        O849   1.280       .  A
C836        C901   1.477       .  S
O837        C850   1.274       .  A
O837       Cd844   2.065       .  S
O838        C856   1.282       .  A
O838       Cd847   2.117       .  S
O839        C853   1.273       .  A
O839       Cd843   2.046   1_556  S
O840        C851   1.271       .  A
O840       Cd843   2.034       .  S
Zn841       O852   2.004   1_554  S
Zn841       O854   2.001       .  S
Zn841       O846   1.933   1_554  S
O842        C853   1.280       .  A
O842       Cd847   2.111       .  S
Cd843       O845   2.077       .  S
Cd843       O846   1.980   1_554  S
Cd844       O848   2.042       .  S
Cd844       O857   2.040   1_554  S
Cd844       O846   1.981   1_554  S
O845        C855   1.274       .  A
O846       Cd847   2.019       .  S
Cd847       O849   2.109       .  S
O848        C855   1.271       .  A
C850        O854   1.273       .  A
C850        C928   1.470       .  S
C851        C892   1.468       .  S
C853        C860   1.477       .  S
C855        C912   1.466       .  S
C856        O857   1.271       .  A
C856        C919   1.475       .  S
C858       C1145   1.496       .  S
C858        C859   1.410       .  A
C858        C863   1.417       .  A
C859        C860   1.398       .  A
C859        H864   1.080       .  S
C860        C861   1.403       .  A
C861        C862   1.402       .  A
C861        H865   1.085       .  S
C862        C887   1.480       .  S
C862        C863   1.405       .  A
C863        H866   1.083       .  S
O867        C883   1.275       .  A
O867       Zn873   2.013   1_556  S
C868        O884   1.278       .  A
C868        O881   1.269       .  A
C868        C910   1.467       .  S
O869        C882   1.276       .  A
O869       Cd876   2.078       .  S
O870        C888   1.273       .  A
O870       Cd879   2.061       .  S
O871        C885   1.282       .  A
O871       Cd875   2.120       .  S
O872        C883   1.280       .  A
O872       Cd875   2.112       .  S
Zn873       O884   2.044       .  S
Zn873       O886   2.001       .  S
Zn873       O878   1.935       .  S
O874        C885   1.272       .  A
O874       Cd879   2.053   1_556  S
Cd875       O877   2.111       .  S
Cd875       O878   2.020   1_556  S
Cd876       O880   2.070   1_554  S
Cd876       O889   2.059       .  S
Cd876       O878   1.993       .  S
O877        C887   1.281       .  A
O878       Cd879   1.989       .  S
Cd879       O881   2.037       .  S
O880        C887   1.276       .  A
C882        O886   1.272       .  A
C882        C930   1.471       .  S
C883        C903   1.482       .  S
C885        C921   1.478       .  S
C888        O889   1.273       .  A
C888        C894   1.467       .  S
C890       C1126   1.479       .  S
C890        C891   1.408       .  A
C890        C895   1.406       .  A
C891        C892   1.399       .  A
C891        H896   1.084       .  S
C892        C893   1.400       .  A
C893        C894   1.396       .  A
C893        H897   1.085       .  S
C894        C895   1.398       .  A
C895        H898   1.082       .  S
C899       C1177   1.493       .  S
C899       C1312   1.411       .  A
C899        C904   1.413       .  A
C900       C1311   1.411       .  A
C900        C901   1.401       .  A
C900        H905   1.084       .  S
C901       C1314   1.404       .  A
C902       C1313   1.404       .  A
C902        C903   1.404       .  A
C902        H906   1.085       .  S
C903        C904   1.402       .  A
C904        H907   1.082       .  S
C908       C1113   1.484   1_655  S
C908        C913   1.408       .  A
C909        C910   1.394       .  A
C909        H914   1.083       .  S
C911        C912   1.400       .  A
C911        H915   1.085       .  S
C912        C913   1.399       .  A
C913        H916   1.083       .  S
C917       C1161   1.493       .  S
C917        C918   1.411       .  A
C918        C919   1.399       .  A
C918        H923   1.083       .  S
C919        C920   1.406   1_655  A
C920        H924   1.085   1_455  S
C921        C922   1.400       .  A
C922        H925   1.083       .  S
C926       C1097   1.489       .  S
C926       C1339   1.408       .  A
C926        C931   1.411       .  A
C927       C1338   1.408       .  A
C927        C928   1.401       .  A
C927        H932   1.081       .  S
C928       C1341   1.400       .  A
C929       C1340   1.400       .  A
C929        C930   1.398       .  A
C929        H933   1.085       .  S
C930        C931   1.398       .  A
C931        H934   1.083       .  S
O935        C951   1.276       .  A
O935       Zn941   2.008       .  S
C936        O952   1.278       .  A
C936        O949   1.271       .  A
C936       C1028   1.469       .  S
O937        C950   1.275       .  A
O937       Cd944   2.076       .  S
O938        C956   1.276       .  A
O938       Cd947   2.070       .  S
O939        C953   1.281       .  A
O939       Cd943   2.121       .  S
O940        C951   1.279       .  A
O940       Cd943   2.099       .  S
Zn941       O952   2.044       .  S
Zn941       O954   2.014       .  S
Zn941       O946   1.933       .  S
O942        C953   1.275       .  A
O942       Cd947   2.070       .  S
Cd943       O945   2.109       .  S
Cd943       O946   2.020       .  S
Cd944       O948   2.058       .  S
Cd944       O957   2.039       .  S
Cd944       O946   1.990       .  S
O945        C955   1.281       .  A
O946       Cd947   1.985       .  S
Cd947       O949   2.041       .  S
O948        C955   1.274       .  A
C950        O954   1.273       .  A
C950       C1010   1.475       .  S
C951       C1001   1.479       .  S
C953        C994   1.486       .  S
C955        C960   1.475       .  S
C956        O957   1.270       .  A
C956       C1021   1.463       .  S
C958       C1190   1.492       .  S
C958        C959   1.410       .  A
C958        C963   1.416       .  A
C959        C960   1.401       .  A
C959        H964   1.082       .  S
C960        C961   1.404       .  A
C961        C962   1.405       .  A
C961        H965   1.085       .  S
C962        C985   1.482       .  S
C962        C963   1.402       .  A
C963        H966   1.084       .  S
O967        C983   1.275       .  A
O967       Zn973   2.021       .  S
C968        O984   1.271       .  A
C968        O981   1.281       .  A
C968       C1003   1.473       .  S
O969        C982   1.274       .  A
O969       Cd976   2.072       .  S
O970        C988   1.282       .  A
O970       Cd979   2.123       .  S
O971        C985   1.273       .  A
O971       Cd975   2.057       .  S
O972        C983   1.271       .  A
O972       Cd975   2.040       .  S
Zn973       O984   1.990       .  S
Zn973       O986   2.001       .  S
Zn973       O978   1.936       .  S
O974        C985   1.282       .  A
O974       Cd979   2.124       .  S
Cd975       O977   2.072       .  S
Cd975       O978   1.987       .  S
Cd976       O980   2.040       .  S
Cd976       O989   2.048       .  S
Cd976       O978   1.985       .  S
O977        C987   1.275       .  A
O978       Cd979   2.016       .  S
Cd979       O981   2.102       .  S
O980        C987   1.272       .  A
C982        O986   1.272       .  A
C982       C1012   1.472       .  S
C983       C1019   1.467       .  S
C987       C1030   1.465       .  S
C988        O989   1.272       .  A
C988        C992   1.479       .  S
C990       C1225   1.497       .  S
C990       C1403   1.413       .  A
C990        C995   1.418   1_565  A
C991       C1402   1.413       .  A
C991        C992   1.404       .  A
C991        H996   1.081       .  S
C992       C1405   1.406       .  A
C993       C1404   1.406       .  A
C993        C994   1.403   1_565  A
C993        H997   1.085       .  S
C994        C995   1.402       .  A
C995        H998   1.084       .  S
C999       C1209   1.518       .  S
C999       C1000   1.424       .  A
C1000      C1001   1.404       .  A
C1000      H1005   1.077       .  S
C1001      C1002   1.400       .  A
C1002      H1006   1.085       .  S
C1003      C1004   1.393       .  A
C1004      H1007   1.074       .  S
C1008      C1078   1.492       .  S
C1008      C1009   1.413       .  A
C1009      C1010   1.402       .  A
C1009      H1014   1.083       .  S
C1010      C1011   1.399       .  A
C1011      H1015   1.085       .  S
C1012      C1013   1.401       .  A
C1013      H1016   1.081       .  S
C1017      C1062   1.475       .  S
C1017      C1018   1.406       .  A
C1017      C1022   1.404       .  A
C1018      C1019   1.398       .  A
C1018      H1023   1.084       .  S
C1019      C1020   1.400       .  A
C1020      C1021   1.398       .  A
C1020      H1024   1.085       .  S
C1021      C1022   1.394       .  A
C1022      H1025   1.084       .  S
C1026      C1049   1.483       .  S
C1026      C1439   1.413       .  A
C1026      C1031   1.406       .  A
C1027      C1438   1.413   1_545  A
C1027      C1028   1.397       .  A
C1027      H1032   1.084       .  S
C1028      C1441   1.396   1_545  A
C1029      C1440   1.396       .  A
C1029      C1030   1.398       .  A
C1029      H1033   1.085       .  S
C1030      C1031   1.398       .  A
C1031      H1034   1.082       .  S
C1035      H1036   1.106       .  S
C1035      C1041   1.531   1_455  S
C1035      C1040   1.537   1_455  S
C1037      H1038   1.106       .  S
C1037      C1043   1.531       .  S
C1037      C1044   1.537       .  S
C1039      C1042   1.373       .  D
C1039      C1129   1.488       .  S
C1040      C1043   1.375       .  D
C1040      C1094   1.486       .  S
C1041      C1044   1.375       .  D
C1041      C1110   1.487   1_655  S
C1042      C1065   1.482       .  S
C1043      C1046   1.490       .  S
C1044      C1081   1.491       .  S
C1045      C1458   1.404   1_565  A
C1045      C1050   1.405       .  A
C1045      H1052   1.084       .  S
C1046      C1457   1.404       .  A
C1046      C1047   1.416       .  A
C1047      C1048   1.392       .  A
C1047      C1054   1.502       .  S
C1048      C1049   1.398       .  A
C1048      H1053   1.084       .  S
C1049      C1462   1.419       .  A
C1050      C1461   1.419       .  A
C1050      C1051   1.508       .  S
C1051      H1055   1.106       .  S
C1051      H1056   1.110       .  S
C1051      H1469   1.111       .  S
C1054      H1470   1.105       .  S
C1054      H1059   1.103   1_655  S
C1054      H1060   1.111       .  S
H1057      C1463   1.111       .  S
H1058      C1466   1.105       .  S
C1061      C1062   1.404       .  A
C1061      C1066   1.399       .  A
C1061      H1068   1.085       .  S
C1062      C1063   1.414       .  A
C1063      C1064   1.393       .  A
C1063      C1070   1.510       .  S
C1064      C1065   1.403       .  A
C1064      H1069   1.085       .  S
C1065      C1066   1.418       .  A
C1066      C1067   1.508       .  S
C1067      H1071   1.111       .  S
C1067      H1072   1.105       .  S
C1067      H1073   1.110       .  S
C1070      H1074   1.107       .  S
C1070      H1075   1.110       .  S
C1070      H1076   1.111       .  S
C1077      C1078   1.404       .  A
C1077      C1082   1.400       .  A
C1077      H1084   1.084       .  S
C1079      C1080   1.405       .  A
C1079      C1086   1.509       .  S
C1080      H1085   1.084       .  S
C1081      C1082   1.416       .  A
C1082      C1083   1.508       .  S
C1083      H1087   1.111       .  S
C1083      H1088   1.110       .  S
C1083      H1089   1.105       .  S
C1086      H1090   1.110       .  S
C1086      H1091   1.106       .  S
C1086      H1092   1.111       .  S
C1093      C1506   1.403   1_545  A
C1093      C1098   1.405       .  A
C1093      H1100   1.084       .  S
C1094      C1505   1.403       .  A
C1094      C1095   1.414       .  A
C1095      C1096   1.397       .  A
C1095      C1102   1.508       .  S
C1096      C1097   1.403       .  A
C1096      H1101   1.084       .  S
C1097      C1510   1.420       .  A
C1098      C1509   1.420       .  A
C1098      C1099   1.509       .  S
C1099      H1103   1.111       .  S
C1099      H1516   1.110       .  S
C1099      H1105   1.106       .  S
C1102      H1106   1.110       .  S
C1102      H1519   1.105       .  S
C1102      H1108   1.111       .  S
H1104      C1511   1.110       .  S
H1107      C1514   1.105       .  S
C1109      C1110   1.403   1_655  A
C1109      C1114   1.404       .  A
C1109      H1116   1.084       .  S
C1111      C1112   1.391       .  A
C1111      C1118   1.503       .  S
C1112      H1117   1.084       .  S
C1113      C1114   1.420   1_455  A
C1114      C1115   1.507       .  S
C1115      H1119   1.111       .  S
C1115      H1120   1.107       .  S
C1115      H1121   1.110       .  S
C1118      H1122   1.105       .  S
C1118      H1535   1.104       .  S
C1118      H1124   1.111       .  S
H1123      C1530   1.104   1_545  S
C1125      C1126   1.404       .  A
C1125      C1130   1.401       .  A
C1125      H1132   1.085       .  S
C1126      C1127   1.414       .  A
C1127      C1128   1.396       .  A
C1127      C1134   1.510       .  S
C1128      C1129   1.404       .  A
C1128      H1133   1.084       .  S
C1129      C1130   1.418       .  A
C1130      C1131   1.508       .  S
C1131      H1135   1.111       .  S
C1131      H1136   1.105       .  S
C1131      H1137   1.110       .  S
C1134      H1138   1.110       .  S
C1134      H1139   1.106       .  S
C1134      H1140   1.111       .  S
C1141      C1142   1.396       .  A
C1141      C1146   1.399       .  A
C1141      H1148   1.073       .  S
C1142      C1143   1.423       .  A
C1143      C1144   1.408       .  A
C1143      C1150   1.504       .  S
C1144      C1145   1.406       .  A
C1144      H1149   1.084       .  S
C1145      C1146   1.421       .  A
C1146      C1147   1.511       .  S
C1147      H1151   1.111       .  S
C1147      H1152   1.107       .  S
C1147      H1153   1.110       .  S
C1150      H1154   1.097       .  S
C1150      H1567   1.110       .  S
C1150      H1156   1.111       .  S
H1155      C1562   1.110       .  S
C1157      C1162   1.400       .  A
C1157      H1164   1.078       .  S
C1158      C1159   1.416       .  A
C1159      C1160   1.407       .  A
C1159      C1166   1.508       .  S
C1160      C1161   1.409       .  A
C1160      H1165   1.083       .  S
C1162      C1163   1.508       .  S
C1163      H1167   1.106       .  S
C1163      H1168   1.110       .  S
C1163      H1169   1.106       .  S
C1166      H1582   1.106   1_545  S
C1166      H1171   1.105       .  S
C1166      H1172   1.111       .  S
H1170      C1578   1.106       .  S
C1173      C1174   1.402       .  A
C1173      C1178   1.399       .  A
C1173      H1180   1.069       .  S
C1174      C1587   1.421       .  A
C1175      C1586   1.421       .  A
C1175      C1176   1.409       .  A
C1175      C1182   1.507       .  S
C1176      C1589   1.407   1_545  A
C1176      H1181   1.084       .  S
C1177      C1588   1.407       .  A
C1177      C1178   1.417       .  A
C1178      C1179   1.512       .  S
C1179      H1183   1.111       .  S
C1179      H1596   1.110       .  S
C1179      H1185   1.107       .  S
C1182      H1186   1.107       .  S
C1182      H1599   1.110       .  S
C1182      H1188   1.111       .  S
H1184      C1591   1.110       .  S
H1187      C1594   1.110       .  S
C1189      C1190   1.401       .  A
C1189      C1194   1.401       .  A
C1189      H1196   1.085       .  S
C1190      C1191   1.414       .  A
C1191      C1192   1.407       .  A
C1191      C1198   1.508       .  S
C1192      C1193   1.411       .  A
C1192      H1197   1.082       .  S
C1193      C1194   1.424       .  A
C1194      C1195   1.502       .  S
C1195      H1199   1.111       .  S
C1195      H1200   1.110       .  S
C1195      H1613   1.090       .  S
C1198      H1202   1.106       .  S
C1198      H1203   1.110       .  S
C1198      H1204   1.111       .  S
H1201      C1607   1.090   1_545  S
C1205      C1210   1.401       .  A
C1205      H1212   1.082       .  S
C1206      C1207   1.411       .  A
C1207      C1208   1.400       .  A
C1207      C1214   1.503       .  S
C1208      C1209   1.414       .  A
C1208      H1213   1.076       .  S
C1210      C1211   1.510       .  S
C1211      H1215   1.107       .  S
C1211      H1216   1.109       .  S
C1211      H1217   1.110       .  S
C1214      H1218   1.099       .  S
C1214      H1631   1.110       .  S
C1214      H1220   1.109       .  S
H1219      C1626   1.110       .  S
C1221      C1634   1.411       .  A
C1221      C1226   1.413       .  A
C1221      H1228   1.083       .  S
C1222      C1633   1.412   1_545  A
C1222      C1223   1.422       .  A
C1223      C1224   1.398       .  A
C1223      C1230   1.499       .  S
C1224      C1225   1.400   1_545  A
C1224      H1229   1.085       .  S
C1225      C1638   1.417       .  A
C1226      C1637   1.417       .  A
C1226      C1227   1.507       .  S
C1227      H1231   1.111       .  S
C1227      H1644   1.110       .  S
C1227      H1233   1.106       .  S
C1230      H1234   1.088       .  S
C1230      H1647   1.110       .  S
C1230      H1236   1.111       .  S
H1232      C1639   1.110       .  S
H1235      C1642   1.110       .  S
C1237      H1238   1.106       .  S
C1237      C1242   1.527       .  S
C1239      H1240   1.106       .  S
C1241      C1244   1.380       .  D
C1241      C1554   1.503       .  S
C1242      C1570   1.499       .  S
C1243      C1586   1.508       .  S
C1244      C1605   1.513       .  S
C1246      C1634   1.515       .  S
O1247      C1263   1.276       .  A
O1247     Zn1253   2.034       .  S
C1248      O1264   1.273       .  A
C1248      O1261   1.280       .  A
C1248      C1313   1.477       .  S
O1249      C1262   1.274       .  A
O1249     Cd1256   2.066       .  S
O1250      C1268   1.282       .  A
O1250     Cd1259   2.117       .  S
O1251      C1265   1.273       .  A
O1251     Cd1255   2.046   1_556  S
O1252      C1263   1.271       .  A
O1252     Cd1255   2.034       .  S
Zn1253     O1264   2.004   1_554  S
Zn1253     O1266   2.001       .  S
Zn1253     O1258   1.933   1_554  S
O1254      C1265   1.280       .  A
O1254     Cd1259   2.111       .  S
Cd1255     O1257   2.076       .  S
Cd1255     O1258   1.980   1_554  S
Cd1256     O1260   2.042       .  S
Cd1256     O1269   2.039   1_554  S
Cd1256     O1258   1.981   1_554  S
O1257      C1267   1.274       .  A
O1258     Cd1259   2.019       .  S
Cd1259     O1261   2.108       .  S
O1260      C1267   1.271       .  A
C1262      O1266   1.273       .  A
C1262      C1340   1.470       .  S
C1263      C1304   1.467       .  S
C1265      C1272   1.477       .  S
C1267      C1324   1.466       .  S
C1268      O1269   1.271       .  A
C1268      C1331   1.475       .  S
C1270      C1557   1.496       .  S
C1270      C1271   1.410       .  A
C1270      C1275   1.416       .  A
C1271      C1272   1.398       .  A
C1271      H1276   1.080       .  S
C1272      C1273   1.403       .  A
C1273      C1274   1.402       .  A
C1273      H1277   1.085       .  S
C1274      C1299   1.480       .  S
C1274      C1275   1.405       .  A
C1275      H1278   1.083       .  S
O1279      C1295   1.275       .  A
O1279     Zn1285   2.013   1_556  S
C1280      O1296   1.278       .  A
C1280      O1293   1.269       .  A
C1280      C1322   1.467       .  S
O1281      C1294   1.276       .  A
O1281     Cd1288   2.078       .  S
O1282      C1300   1.273       .  A
O1282     Cd1291   2.061       .  S
O1283      C1297   1.282       .  A
O1283     Cd1287   2.120       .  S
O1284      C1295   1.280       .  A
O1284     Cd1287   2.112       .  S
Zn1285     O1296   2.044       .  S
Zn1285     O1298   2.001       .  S
Zn1285     O1290   1.935       .  S
O1286      C1297   1.272       .  A
O1286     Cd1291   2.052   1_556  S
Cd1287     O1289   2.111       .  S
Cd1287     O1290   2.020   1_556  S
Cd1288     O1292   2.070   1_554  S
Cd1288     O1301   2.059       .  S
Cd1288     O1290   1.993       .  S
O1289      C1299   1.281       .  A
O1290     Cd1291   1.989       .  S
Cd1291     O1293   2.036       .  S
O1292      C1299   1.276       .  A
C1294      O1298   1.272       .  A
C1294      C1342   1.471       .  S
C1295      C1315   1.482       .  S
C1297      C1333   1.478       .  S
C1300      O1301   1.273       .  A
C1300      C1306   1.467       .  S
C1302      C1538   1.480       .  S
C1302      C1303   1.408       .  A
C1302      C1307   1.406       .  A
C1303      C1304   1.399       .  A
C1303      H1308   1.084       .  S
C1304      C1305   1.400       .  A
C1305      C1306   1.396       .  A
C1305      H1309   1.085       .  S
C1306      C1307   1.398       .  A
C1307      H1310   1.082       .  S
C1311      C1589   1.493   1_545  S
C1311      C1316   1.413   1_545  A
C1312      C1313   1.401       .  A
C1312      H1317   1.084       .  S
C1314      C1315   1.404   1_545  A
C1314      H1318   1.085       .  S
C1315      C1316   1.402       .  A
C1316      H1319   1.082       .  S
C1320      C1525   1.484       .  S
C1320      C1325   1.408       .  A
C1321      C1322   1.394       .  A
C1321      H1326   1.083       .  S
C1323      C1324   1.400       .  A
C1323      H1327   1.085       .  S
C1324      C1325   1.399       .  A
C1325      H1328   1.083       .  S
C1329      C1573   1.493       .  S
C1329      C1330   1.411       .  A
C1330      C1331   1.399       .  A
C1330      H1335   1.083       .  S
C1331      C1332   1.406       .  A
C1332      H1336   1.085       .  S
C1333      C1334   1.400       .  A
C1334      H1337   1.083       .  S
C1338      C1509   1.489       .  S
C1338      C1343   1.412   1_545  A
C1339      C1340   1.401       .  A
C1339      H1344   1.081       .  S
C1341      C1342   1.398   1_545  A
C1341      H1345   1.085       .  S
C1342      C1343   1.398       .  A
C1343      H1346   1.083       .  S
O1347      C1363   1.276       .  A
O1347     Zn1353   2.008       .  S
C1348      O1364   1.278       .  A
C1348      O1361   1.271       .  A
C1348      C1440   1.468       .  S
O1349      C1362   1.275       .  A
O1349     Cd1356   2.076       .  S
O1350      C1368   1.276       .  A
O1350     Cd1359   2.070       .  S
O1351      C1365   1.281       .  A
O1351     Cd1355   2.121       .  S
O1352      C1363   1.279       .  A
O1352     Cd1355   2.100       .  S
Zn1353     O1364   2.043       .  S
Zn1353     O1366   2.014       .  S
Zn1353     O1358   1.934       .  S
O1354      C1365   1.275       .  A
O1354     Cd1359   2.070       .  S
Cd1355     O1357   2.109       .  S
Cd1355     O1358   2.020       .  S
Cd1356     O1360   2.058       .  S
Cd1356     O1369   2.038       .  S
Cd1356     O1358   1.990       .  S
O1357      C1367   1.281       .  A
O1358     Cd1359   1.985       .  S
Cd1359     O1361   2.041       .  S
O1360      C1367   1.274       .  A
C1362      O1366   1.273       .  A
C1362      C1422   1.475       .  S
C1363      C1413   1.479       .  S
C1365      C1406   1.486       .  S
C1367      C1372   1.476       .  S
C1368      O1369   1.270       .  A
C1368      C1433   1.462       .  S
C1370      C1602   1.492       .  S
C1370      C1371   1.410       .  A
C1370      C1375   1.416       .  A
C1371      C1372   1.401       .  A
C1371      H1376   1.082       .  S
C1372      C1373   1.404       .  A
C1373      C1374   1.405       .  A
C1373      H1377   1.085       .  S
C1374      C1397   1.482       .  S
C1374      C1375   1.402       .  A
C1375      H1378   1.084       .  S
O1379      C1395   1.275       .  A
O1379     Zn1385   2.021       .  S
C1380      O1396   1.271       .  A
C1380      O1393   1.281       .  A
C1380      C1415   1.473       .  S
O1381      C1394   1.274       .  A
O1381     Cd1388   2.072       .  S
O1382      C1400   1.282       .  A
O1382     Cd1391   2.123       .  S
O1383      C1397   1.273       .  A
O1383     Cd1387   2.057       .  S
O1384      C1395   1.271       .  A
O1384     Cd1387   2.041       .  S
Zn1385     O1396   1.990       .  S
Zn1385     O1398   2.001       .  S
Zn1385     O1390   1.937       .  S
O1386      C1397   1.282       .  A
O1386     Cd1391   2.124       .  S
Cd1387     O1389   2.073       .  S
Cd1387     O1390   1.987       .  S
Cd1388     O1392   2.040       .  S
Cd1388     O1401   2.047       .  S
Cd1388     O1390   1.985       .  S
O1389      C1399   1.275       .  A
O1390     Cd1391   2.017       .  S
Cd1391     O1393   2.102       .  S
O1392      C1399   1.271       .  A
C1394      O1398   1.272       .  A
C1394      C1424   1.472       .  S
C1395      C1431   1.467       .  S
C1399      C1442   1.465       .  S
C1400      O1401   1.272       .  A
C1400      C1404   1.479       .  S
C1402      C1637   1.497       .  S
C1402      C1407   1.418       .  A
C1403      C1404   1.404       .  A
C1403      H1408   1.081       .  S
C1405      C1406   1.403       .  A
C1405      H1409   1.085       .  S
C1406      C1407   1.402       .  A
C1407      H1410   1.084       .  S
C1411      C1621   1.518       .  S
C1411      C1412   1.424       .  A
C1412      C1413   1.404       .  A
C1412      H1417   1.077       .  S
C1413      C1414   1.400       .  A
C1414      H1418   1.085       .  S
C1415      C1416   1.393       .  A
C1416      H1419   1.074       .  S
C1420      C1490   1.493       .  S
C1420      C1421   1.413       .  A
C1421      C1422   1.402       .  A
C1421      H1426   1.083       .  S
C1422      C1423   1.399       .  A
C1423      H1427   1.085       .  S
C1424      C1425   1.401       .  A
C1425      H1428   1.081       .  S
C1429      C1474   1.475       .  S
C1429      C1430   1.406       .  A
C1429      C1434   1.404       .  A
C1430      C1431   1.398       .  A
C1430      H1435   1.084       .  S
C1431      C1432   1.400       .  A
C1432      C1433   1.398       .  A
C1432      H1436   1.085       .  S
C1433      C1434   1.394       .  A
C1434      H1437   1.084       .  S
C1438      C1461   1.483       .  S
C1438      C1443   1.406       .  A
C1439      C1440   1.397       .  A
C1439      H1444   1.084       .  S
C1441      C1442   1.398       .  A
C1441      H1445   1.085       .  S
C1442      C1443   1.398       .  A
C1443      H1446   1.082       .  S
C1447      H1448   1.106       .  S
C1447      C1453   1.531   1_455  S
C1447      C1452   1.537   1_455  S
C1449      H1450   1.106       .  S
C1449      C1455   1.531       .  S
C1449      C1456   1.537       .  S
C1451      C1454   1.373       .  D
C1451      C1541   1.488       .  S
C1452      C1455   1.375       .  D
C1452      C1506   1.486       .  S
C1453      C1456   1.375       .  D
C1453      C1522   1.487   1_655  S
C1454      C1477   1.482       .  S
C1455      C1458   1.490   1_565  S
C1456      C1493   1.491       .  S
C1457      C1462   1.405       .  A
C1457      H1464   1.084       .  S
C1458      C1459   1.416       .  A
C1459      C1460   1.392       .  A
C1459      C1466   1.502       .  S
C1460      C1461   1.398   1_545  A
C1460      H1465   1.084       .  S
C1462      C1463   1.508       .  S
C1463      H1467   1.106       .  S
C1463      H1468   1.110       .  S
C1466      H1471   1.103   1_655  S
C1466      H1472   1.111       .  S
C1473      C1474   1.404       .  A
C1473      C1478   1.399       .  A
C1473      H1480   1.085       .  S
C1474      C1475   1.414       .  A
C1475      C1476   1.393       .  A
C1475      C1482   1.510       .  S
C1476      C1477   1.403       .  A
C1476      H1481   1.085       .  S
C1477      C1478   1.418       .  A
C1478      C1479   1.508       .  S
C1479      H1483   1.111       .  S
C1479      H1484   1.105       .  S
C1479      H1485   1.110       .  S
C1482      H1486   1.107       .  S
C1482      H1487   1.110       .  S
C1482      H1488   1.111       .  S
C1489      C1490   1.404       .  A
C1489      C1494   1.400       .  A
C1489      H1496   1.084       .  S
C1491      C1492   1.405       .  A
C1491      C1498   1.509       .  S
C1492      H1497   1.084       .  S
C1493      C1494   1.416       .  A
C1494      C1495   1.508       .  S
C1495      H1499   1.111       .  S
C1495      H1500   1.110       .  S
C1495      H1501   1.105       .  S
C1498      H1502   1.110       .  S
C1498      H1503   1.106       .  S
C1498      H1504   1.111       .  S
C1505      C1510   1.405       .  A
C1505      H1512   1.084       .  S
C1506      C1507   1.414       .  A
C1507      C1508   1.397       .  A
C1507      C1514   1.508       .  S
C1508      C1509   1.403   1_565  A
C1508      H1513   1.084       .  S
C1510      C1511   1.509       .  S
C1511      H1515   1.111       .  S
C1511      H1517   1.106       .  S
C1514      H1518   1.110       .  S
C1514      H1520   1.111       .  S
C1521      C1522   1.403   1_655  A
C1521      C1526   1.404       .  A
C1521      H1528   1.084       .  S
C1523      C1524   1.391       .  A
C1523      C1530   1.503       .  S
C1524      H1529   1.084       .  S
C1525      C1526   1.420       .  A
C1526      C1527   1.507       .  S
C1527      H1531   1.111       .  S
C1527      H1532   1.107       .  S
C1527      H1533   1.110       .  S
C1530      H1534   1.105       .  S
C1530      H1536   1.111       .  S
C1537      C1538   1.404       .  A
C1537      C1542   1.401       .  A
C1537      H1544   1.085       .  S
C1538      C1539   1.414       .  A
C1539      C1540   1.396       .  A
C1539      C1546   1.510       .  S
C1540      C1541   1.404       .  A
C1540      H1545   1.084       .  S
C1541      C1542   1.418       .  A
C1542      C1543   1.508       .  S
C1543      H1547   1.111       .  S
C1543      H1548   1.105       .  S
C1543      H1549   1.110       .  S
C1546      H1550   1.110       .  S
C1546      H1551   1.106       .  S
C1546      H1552   1.111       .  S
C1553      C1554   1.396       .  A
C1553      C1558   1.399       .  A
C1553      H1560   1.073       .  S
C1554      C1555   1.423       .  A
C1555      C1556   1.408       .  A
C1555      C1562   1.504       .  S
C1556      C1557   1.406       .  A
C1556      H1561   1.084       .  S
C1557      C1558   1.421       .  A
C1558      C1559   1.511       .  S
C1559      H1563   1.111       .  S
C1559      H1564   1.107       .  S
C1559      H1565   1.110       .  S
C1562      H1566   1.097       .  S
C1562      H1568   1.111       .  S
C1569      C1574   1.400       .  A
C1569      H1576   1.078       .  S
C1570      C1571   1.416       .  A
C1571      C1572   1.407       .  A
C1571      C1578   1.508       .  S
C1572      C1573   1.409       .  A
C1572      H1577   1.083       .  S
C1574      C1575   1.508       .  S
C1575      H1579   1.106       .  S
C1575      H1580   1.110       .  S
C1575      H1581   1.106       .  S
C1578      H1583   1.105       .  S
C1578      H1584   1.111       .  S
C1585      C1586   1.402   1_565  A
C1585      C1590   1.399       .  A
C1585      H1592   1.069       .  S
C1587      C1588   1.409       .  A
C1587      C1594   1.507       .  S
C1588      H1593   1.084       .  S
C1589      C1590   1.417       .  A
C1590      C1591   1.512       .  S
C1591      H1595   1.111       .  S
C1591      H1597   1.107       .  S
C1594      H1598   1.107       .  S
C1594      H1600   1.111       .  S
C1601      C1602   1.401       .  A
C1601      C1606   1.401       .  A
C1601      H1608   1.085       .  S
C1602      C1603   1.414       .  A
C1603      C1604   1.407       .  A
C1603      C1610   1.508       .  S
C1604      C1605   1.411       .  A
C1604      H1609   1.082       .  S
C1605      C1606   1.424       .  A
C1606      C1607   1.502       .  S
C1607      H1611   1.111       .  S
C1607      H1612   1.110       .  S
C1610      H1614   1.106       .  S
C1610      H1615   1.110       .  S
C1610      H1616   1.111       .  S
C1617      C1622   1.401       .  A
C1617      H1624   1.082       .  S
C1618      C1619   1.411       .  A
C1619      C1620   1.400       .  A
C1619      C1626   1.503       .  S
C1620      C1621   1.414       .  A
C1620      H1625   1.076       .  S
C1622      C1623   1.510       .  S
C1623      H1627   1.107       .  S
C1623      H1628   1.109       .  S
C1623      H1629   1.110       .  S
C1626      H1630   1.099       .  S
C1626      H1632   1.109       .  S
C1633      C1638   1.413       .  A
C1633      H1640   1.083       .  S
C1634      C1635   1.422       .  A
C1635      C1636   1.398       .  A
C1635      C1642   1.499       .  S
C1636      C1637   1.400       .  A
C1636      H1641   1.085       .  S
C1638      C1639   1.507       .  S
C1639      H1643   1.111       .  S
C1639      H1645   1.106       .  S
C1642      H1646   1.087       .  S
C1642      H1648   1.111       .  S
