geometry optimzed in LAMMPS
_audit_creation_date              2020-11-30 
_audit_creation_method            'lammps2cif' 
_symmetry_space_group_name_H-M    'P1' 
_symmetry_Int_Tables_number       1 
_symmetry_cell_setting            triclinic 
loop_ 
_symmetry_equiv_pos_as_xyz 
  x,y,z 
_cell_length_a                    43.63739897264031 
_cell_length_b                    43.5481643300684 
_cell_length_c                    43.469920416271634 
_cell_angle_alpha                 89.99706384526733 
_cell_angle_beta                  89.92953385686162 
_cell_angle_gamma                 90.26201956415977 
loop_ 
_atom_site_label 
_atom_site_type_symbol 
_atom_site_fract_x 
_atom_site_fract_y 
_atom_site_fract_z 
_atom_site_charge 
O1          O  0.47448996  0.99966127  0.29342489    -0.72110
O2          O  0.47583167  0.49926673  0.20605572    -0.72330
O3          O  0.47582331  0.45605014  0.24987982    -0.72190
O4          O  0.47445741  0.04300864  0.24948740    -0.72200
O5          O  0.02408652  0.04403137  0.25064966    -0.72160
O6          O  0.02547325  0.45703572  0.25032210    -0.72180
O7          O  0.02544918  0.00072162  0.20679723    -0.72120
O8          O  0.02418673  0.50040056  0.29408080    -0.72300
V9          V  0.47610310  0.49953866  0.24974148     1.35240
V10         V  0.02384082  0.50053068  0.25043771     1.35170
C11         C  0.99912940  0.49986226  0.30871564     0.77130
C12         C  0.00090312  0.49984293  0.19140416     0.77180
C13         C  0.50088673  0.44160466  0.25005531     0.77050
C14         C  0.49901425  0.05846339  0.25009075     0.77020
O15         O  0.02401530  0.25037103  0.29361885    -0.72110
O16         O  0.02519268  0.25096038  0.20624960    -0.72330
O17         O  0.02376910  0.29407347  0.25028889    -0.72190
O18         O  0.02544109  0.20712823  0.24968164    -0.72200
O19         O  0.47578830  0.20595868  0.24986033    -0.72160
O20         O  0.47414085  0.29294522  0.24874279    -0.72180
O21         O  0.47539568  0.24867197  0.20573906    -0.72120
O22         O  0.47437940  0.24995087  0.29296782    -0.72300
V23         V  0.02365431  0.25060111  0.24993351     1.35240
V24         V  0.47588616  0.24943579  0.24935094     1.35170
C25         C  0.49896185  0.25025134  0.30830942     0.77130
C26         C  0.50045977  0.24957134  0.19122807     0.77180
C27         C  0.49867689  0.30845009  0.24957539     0.77050
C28         C  0.50091269  0.19160926  0.24972796     0.77020
O29         O  0.22552573  0.49881600  0.29428732    -0.72110
O30         O  0.22519953  0.49974142  0.20667457    -0.72330
O31         O  0.22528763  0.45569386  0.25021184    -0.72190
O32         O  0.22498705  0.04287891  0.25099122    -0.72200
O33         O  0.27463395  0.04347386  0.24923013    -0.72160
O34         O  0.27510710  0.45602736  0.25119117    -0.72180
O35         O  0.27483960  0.49884758  0.20669329    -0.72120
O36         O  0.27518237  0.50073134  0.29373699    -0.72300
V37         V  0.22619263  0.49928559  0.25050338     1.35240
V38         V  0.27396958  0.49974074  0.25021817     1.35170
C39         C  0.25054662  0.49994936  0.30897727     0.77130
C40         C  0.25010926  0.49948267  0.19166258     0.77180
C41         C  0.25019414  0.44108013  0.25097858     0.77050
C42         C  0.24966549  0.05816091  0.25014089     0.77020
O43         O  0.27519390  0.25054068  0.29334212    -0.72110
O44         O  0.27509782  0.25192872  0.20601951    -0.72330
O45         O  0.27425347  0.29467637  0.25038077    -0.72190
O46         O  0.27596120  0.20736099  0.24885848    -0.72200
O47         O  0.22630705  0.20611518  0.25058096    -0.72160
O48         O  0.22444340  0.29344334  0.24911461    -0.72180
O49         O  0.22538436  0.24883062  0.20604519    -0.72120
O50         O  0.22538221  0.25045700  0.29345270    -0.72300
V51         V  0.27415750  0.25104397  0.24966178     1.35240
V52         V  0.22633427  0.24975762  0.24977451     1.35170
C53         C  0.25030195  0.25094818  0.30823944     0.77130
C54         C  0.25026416  0.25046202  0.19117925     0.77180
C55         C  0.24906410  0.30884650  0.24985135     0.77050
C56         C  0.25143785  0.19175697  0.24964134     0.77020
O57         O  0.99967730  0.47431624  0.45629099    -0.72110
O58         O  0.49958601  0.47424031  0.04367518    -0.72330
O59         O  0.45636562  0.47420967  0.49993485    -0.72190
O60         O  0.04305505  0.47417035  0.00001582    -0.72200
O61         O  0.04355525  0.02392656  0.50030280    -0.72160
O62         O  0.45637840  0.02396767  0.99974045    -0.72180
O63         O  0.99959383  0.02418586  0.04364898    -0.72120
O64         O  0.50057648  0.02425022  0.45640083    -0.72300
V65         V  0.99969482  0.47522188  0.49998253     1.35240
V66         V  0.99999206  0.02314095  0.00002274     1.35170
C67         C  0.00038534  0.99932535  0.44156647     0.77130
C68         C  0.99945961  0.99923580  0.05842126     0.77180
C69         C  0.44142754  0.99895285  0.99984385     0.77050
C70         C  0.05824580  0.99891273  0.00011202     0.77020
O71         O  0.49946593  0.22467978  0.45626193    -0.72110
O72         O  0.49980171  0.22584603  0.04365904    -0.72330
O73         O  0.45616714  0.22585166  0.50026764    -0.72190
O74         O  0.04314757  0.22462253  0.99960365    -0.72200
O75         O  0.04405865  0.27444998  0.49975116    -0.72160
O76         O  0.45701789  0.27557534  0.99895219    -0.72180
O77         O  0.00018240  0.27559523  0.04294704    -0.72120
O78         O  0.50106342  0.27460740  0.45573751    -0.72300
V79         V  0.49966524  0.22620494  0.49994222     1.35240
V80         V  0.50054444  0.27408623  0.99935708     1.35170
C81         C  0.50042870  0.24949902  0.44124392     0.77130
C82         C  0.49997156  0.25096698  0.05830442     0.77180
C83         C  0.44161621  0.25091029  0.99971872     0.77050
C84         C  0.05848804  0.24932392  0.99949123     0.77020
O85         O  0.25160662  0.02545117  0.45661181    -0.72110
O86         O  0.24841256  0.02529655  0.04394645    -0.72330
O87         O  0.29328103  0.02533353  0.50176475    -0.72190
O88         O  0.20662937  0.02557234  0.99876862    -0.72200
O89         O  0.20602669  0.47588733  0.50139674    -0.72160
O90         O  0.29317017  0.47566424  0.99891775    -0.72180
O91         O  0.25056046  0.47540802  0.04380061    -0.72120
O92         O  0.24811548  0.47563033  0.45656115    -0.72300
V93         V  0.24996642  0.02444916  0.50027336     1.35240
V94         V  0.24954001  0.47656442  0.00017286     1.35170
C95         C  0.24970818  0.50055427  0.44179167     0.77130
C96         C  0.24921244  0.50028356  0.05864179     0.77180
C97         C  0.30818952  0.50060876  0.00030477     0.77050
C98         C  0.19138607  0.50089017  0.00009201     0.77020
O99         O  0.25017947  0.27449713  0.45620338    -0.72110
O100        O  0.25037462  0.27353115  0.04361216    -0.72330
O101        O  0.29364506  0.27342437  0.49968729    -0.72190
O102        O  0.20666120  0.27463677  0.00019091    -0.72200
O103        O  0.20571614  0.22482177  0.49922125    -0.72160
O104        O  0.29275064  0.22368566  0.99955452    -0.72180
O105        O  0.24885053  0.22372969  0.04302926    -0.72120
O106        O  0.24922252  0.22462821  0.45573287    -0.72300
V107        V  0.25016814  0.27306312  0.49990512     1.35240
V108        V  0.24920442  0.22518645  0.99939172     1.35170
C109        C  0.24954934  0.24969381  0.44107959     0.77130
C110        C  0.24945037  0.24843662  0.05825422     0.77180
C111        C  0.30817404  0.24835629  0.99955562     0.77050
C112        C  0.19130144  0.24993711  0.99990969     0.77020
C113        C  0.39182472  0.22268933  0.00163701    -0.26650
C114        C  0.40745259  0.25095806  0.99997097    -0.14720
C115        C  0.39014272  0.27831857  0.49825421     0.35910
C116        C  0.35796461  0.27660039  0.49782689    -0.26100
C117        C  0.34233798  0.24832153  0.99941357    -0.15340
C118        C  0.35964783  0.22097328  0.00124998     0.36990
N119        N  0.34473950  0.19149621  0.00286740    -0.89590
H120        H  0.40478238  0.20157911  0.00301651     0.18110
H121        H  0.34500476  0.29771115  0.49646160     0.18100
N122        N  0.40505166  0.30780931  0.49687033    -0.88620
H123        H  0.36075555  0.17400174  0.50606877     0.35470
H124        H  0.33462538  0.18738358  0.48146362     0.40570
H125        H  0.41526085  0.31170591  0.01826974     0.40190
H126        H  0.38902953  0.32534009  0.99390514     0.35080
C127        C  0.14139178  0.22476656  0.48819641    -0.26650
C128        C  0.15732194  0.25018271  0.00016282    -0.14720
C129        C  0.14057654  0.27520808  0.01210771     0.35910
C130        C  0.10839109  0.27446244  0.01121077    -0.26100
C131        C  0.09246148  0.24905004  0.99924889    -0.15340
C132        C  0.10920311  0.22395257  0.48743511     0.36990
N133        N  0.09359467  0.19795161  0.47424996    -0.89590
H134        H  0.15413901  0.20560404  0.47885895     0.18110
H135        H  0.09564076  0.29362450  0.02054285     0.18100
N136        N  0.15618612  0.30100166  0.02568733    -0.88620
H137        H  0.10928329  0.18134817  0.46705117     0.35470
H138        H  0.08232037  0.20551776  0.45447159     0.40570
H139        H  0.16735005  0.29312589  0.04541959     0.40190
H140        H  0.14050370  0.31754730  0.03303395     0.35080
C141        C  0.35782257  0.47310948  0.49478693    -0.26650
C142        C  0.34231052  0.50079253  0.00010279    -0.14720
C143        C  0.35968642  0.02786921  0.00536070     0.35910
C144        C  0.39184246  0.02641235  0.00539126    -0.26100
C145        C  0.40733767  0.49873665  0.00007034    -0.15340
C146        C  0.38998537  0.47165922  0.49482368     0.36990
N147        N  0.40484122  0.44278230  0.48917751    -0.89590
H148        H  0.34478470  0.45228646  0.49067244     0.18110
H149        H  0.40489706  0.04722197  0.00953102     0.18100
N150        N  0.34486677  0.05678184  0.01091455    -0.88620
H151        H  0.38881404  0.42585543  0.48329824     0.35470
H152        H  0.41460707  0.43566568  0.50991890     0.40570
H153        H  0.33500610  0.06378645  0.99017879     0.40190
H154        H  0.36091432  0.07373840  0.01665138     0.35080
C155        C  0.14162994  0.47309593  0.00414469    -0.26650
C156        C  0.15731428  0.50105351  0.00021143    -0.14720
C157        C  0.14015769  0.02828894  0.49616171     0.35910
C158        C  0.10800421  0.02672897  0.49591641    -0.26100
C159        C  0.09232314  0.49877233  0.99988060    -0.15340
C160        C  0.10948543  0.47153137  0.00387739     0.36990
N161        N  0.09446115  0.44234189  0.00792902    -0.89590
H162        H  0.15451255  0.45212591  0.00728979     0.18110
H163        H  0.09510527  0.04768502  0.49274253     0.18100
N164        N  0.15519362  0.05747579  0.49213946    -0.88620
H165        H  0.11038009  0.42516064  0.01285768     0.35470
H166        H  0.08462300  0.43636189  0.98683605     0.40570
H167        H  0.16516658  0.06336215  0.51319549     0.40190
H168        H  0.13927049  0.07469222  0.48734940     0.35080
C169        C  0.23411682  0.22698617  0.14185964    -0.26650
C170        C  0.25031719  0.25018308  0.15726860    -0.14720
C171        C  0.26627617  0.27265240  0.14016456     0.35910
C172        C  0.26506677  0.27184603  0.10788778    -0.26100
C173        C  0.24951454  0.24821861  0.09232947    -0.15340
C174        C  0.23414279  0.22525945  0.10954965     0.36990
N175        N  0.21798964  0.20075422  0.09433129    -0.89590
H176        H  0.22204354  0.20968657  0.15516143     0.18110
H177        H  0.27694767  0.28940691  0.09476845     0.18100
N178        N  0.28294571  0.29666906  0.15556190    -0.88620
H179        H  0.20606332  0.18729651  0.11031780     0.35470
H180        H  0.23438178  0.18631404  0.08452755     0.40570
H181        H  0.30179996  0.28667581  0.16638315     0.40190
H182        H  0.29184363  0.31235880  0.13964751     0.35080
C183        C  0.23254405  0.22963356  0.35779106    -0.26650
C184        C  0.25020036  0.25166062  0.34214820    -0.14720
C185        C  0.26724976  0.27355736  0.35925525     0.35910
C186        C  0.26650971  0.27241999  0.39146047    -0.26100
C187        C  0.24929850  0.25004105  0.40708962    -0.15340
C188        C  0.23194674  0.22851846  0.39009707     0.36990
N189        N  0.21343780  0.20594589  0.40566997    -0.89590
H190        H  0.21936048  0.21303294  0.34468373     0.18110
H191        H  0.27960057  0.28921460  0.40441407     0.18100
N192        N  0.28444213  0.29801745  0.34507101    -0.88620
H193        H  0.20227017  0.19175247  0.38980573     0.35470
H194        H  0.19630989  0.21762665  0.41770450     0.40570
H195        H  0.28117481  0.29901889  0.32135772     0.40190
H196        H  0.30769209  0.29384923  0.34898309     0.35080
C197        C  0.22235240  0.49694537  0.14152445    -0.26650
C198        C  0.25028867  0.49994949  0.15740482    -0.14720
C199        C  0.27777972  0.00329131  0.14021652     0.35910
C200        C  0.27657082  0.00310495  0.10792569    -0.26100
C201        C  0.24869734  0.50010368  0.09238400    -0.15340
C202        C  0.22118077  0.49693243  0.10929614     0.36990
N203        N  0.19170620  0.49404844  0.09473257    -0.89590
H204        H  0.20109133  0.49448754  0.15421020     0.18110
H205        H  0.29752891  0.00557392  0.09470921     0.18100
N206        N  0.30682703  0.00709214  0.15537456    -0.88620
H207        H  0.18283298  0.47241670  0.10035424     0.35470
H208        H  0.19335447  0.49481142  0.07080460     0.40570
H209        H  0.30665172  0.02853910  0.16618786     0.40190
H210        H  0.32471444  0.00783627  0.13935939     0.35080
C211        C  0.22557976  0.48812212  0.35915448    -0.26650
C212        C  0.25093124  0.50016837  0.34311288    -0.14720
C213        C  0.27589318  0.01253711  0.35997340     0.35910
C214        C  0.27455117  0.01306269  0.39225711    -0.26100
C215        C  0.24948856  0.50055939  0.40801311    -0.15340
C216        C  0.22473221  0.48797482  0.39147695     0.36990
N217        N  0.19873077  0.47545799  0.40760312    -0.89590
H218        H  0.20645063  0.47854567  0.34644201     0.18110
H219        H  0.29350461  0.02260386  0.40528197     0.18100
N220        N  0.30226822  0.02503124  0.34445539    -0.88620
H221        H  0.18245475  0.46707356  0.39205829     0.35470
H222        H  0.18829293  0.49342963  0.41957393     0.40570
H223        H  0.31439713  0.00660366  0.33511342     0.40190
H224        H  0.31713941  0.03548314  0.36017260     0.35080
C225        C  0.25127883  0.39162247  0.22342367    -0.26650
C226        C  0.25002322  0.40730844  0.25154517    -0.14720
C227        C  0.24776704  0.39044849  0.27934647     0.35910
C228        C  0.24714830  0.35823333  0.27818561    -0.26100
C229        C  0.24856197  0.34262616  0.25003391    -0.15340
C230        C  0.25032764  0.35936967  0.22238952     0.36990
N231        N  0.25128987  0.34351445  0.19343870    -0.89590
H232        H  0.25274330  0.40463369  0.20220631     0.18110
H233        H  0.24564475  0.34527682  0.29943508     0.18100
N234        N  0.24581408  0.40505645  0.30897258    -0.88620
H235        H  0.25285906  0.35915113  0.17524725     0.35470
H236        H  0.23046088  0.33185340  0.19078010     0.40570
H237        H  0.24624041  0.42894479  0.30720500     0.40190
H238        H  0.26526513  0.39885296  0.32149432     0.35080
C239        C  0.27480541  0.10811631  0.23754484    -0.26650
C240        C  0.24951137  0.09234782  0.24999578    -0.14720
C241        C  0.22497265  0.10950461  0.26244695     0.35910
C242        C  0.22646423  0.14178386  0.26220935    -0.26100
C243        C  0.25176204  0.15756493  0.24977870    -0.15340
C244        C  0.27626250  0.14042198  0.23726324     0.36990
N245        N  0.30214126  0.15567933  0.22347886    -0.89590
H246        H  0.29357661  0.09513425  0.22778113     0.18110
H247        H  0.20766950  0.15474362  0.27196016     0.18100
N248        N  0.19898233  0.09429102  0.27609183    -0.88620
H249        H  0.31668991  0.13977338  0.21301354     0.35470
H250        H  0.31484811  0.16569331  0.24123503     0.40570
H251        H  0.18624569  0.08447503  0.25824640     0.40190
H252        H  0.18448874  0.11019566  0.28663796     0.35080
C253        C  0.00738930  0.27653955  0.14200910    -0.26650
C254        C  0.50073288  0.24914724  0.15748818    -0.14720
C255        C  0.49375511  0.22234410  0.14050356     0.35910
C256        C  0.49355334  0.22376771  0.10831475    -0.26100
C257        C  0.49992790  0.25127111  0.09251890    -0.15340
C258        C  0.00664649  0.27812534  0.10973193     0.36990
N259        N  0.01294781  0.30684832  0.09462514    -0.89590
H260        H  0.01254980  0.29699995  0.15527507     0.18110
H261        H  0.48823106  0.20303248  0.09557531     0.18100
N262        N  0.48693729  0.19334746  0.15493431    -0.88620
H263        H  0.01952446  0.32357523  0.11059253     0.35470
H264        H  0.99237265  0.31451352  0.08509324     0.40570
H265        H  0.48797888  0.19470246  0.17886168     0.40190
H266        H  0.50392184  0.17783491  0.14827868     0.35080
C267        C  0.02688576  0.25103029  0.35829474    -0.26650
C268        C  0.49871353  0.25031808  0.34255368    -0.14720
C269        C  0.47115286  0.24934797  0.35986788     0.35910
C270        C  0.47259604  0.24848281  0.39214803    -0.26100
C271        C  0.50071685  0.24928945  0.40752481    -0.15340
C272        C  0.02826572  0.25066413  0.39047563     0.36990
N273        N  0.05793662  0.25201650  0.40484830    -0.89590
H274        H  0.04821992  0.25197814  0.34554020     0.18110
H275        H  0.45159812  0.24768689  0.40549292     0.18100
N276        N  0.44179923  0.24931453  0.34487243    -0.88620
H277        H  0.06974530  0.23207190  0.39877565     0.35470
H278        H  0.05636607  0.25208869  0.42878791     0.40570
H279        H  0.43895654  0.27092357  0.33481494     0.40190
H280        H  0.42409702  0.24693016  0.36094335     0.35080
C281        C  0.02732036  0.00057202  0.10753097    -0.26650
C282        C  0.99920733  0.99933128  0.09214950    -0.14720
C283        C  0.47165431  0.49833518  0.10920409     0.35910
C284        C  0.47302735  0.49839739  0.14139216    -0.26100
C285        C  0.00118826  0.99947921  0.15714783    -0.15340
C286        C  0.02875068  0.00039611  0.13983161     0.36990
N287        N  0.05808925  0.00114688  0.15484463    -0.89590
H288        H  0.04831807  0.00135428  0.09418472     0.18110
H289        H  0.45168621  0.49759925  0.15414293     0.18100
N290        N  0.44197673  0.49704727  0.09482900    -0.88620
H291        H  0.07576834  0.50348773  0.13874260     0.35470
H292        H  0.06124204  0.47978190  0.16531967     0.40570
H293        H  0.44353691  0.99679554  0.07088526     0.40190
H294        H  0.43029700  0.01711955  0.10072942     0.35080
C295        C  0.47465935  0.48907225  0.39224299    -0.26650
C296        C  0.00080913  0.99944620  0.40779567    -0.14720
C297        C  0.02646603  0.00994590  0.39082628     0.35910
C298        C  0.02520566  0.00974444  0.35863857    -0.26100
C299        C  0.99895155  0.99956000  0.34285349    -0.15340
C300        C  0.47335591  0.48902588  0.35993993     0.36990
N301        N  0.44630932  0.47795903  0.34458716    -0.89590
H302        H  0.45509906  0.48106045  0.40544159     0.18110
H303        H  0.04503987  0.01774833  0.34586945     0.18100
N304        N  0.05443621  0.02002349  0.40523044    -0.88620
H305        H  0.42942509  0.47180276  0.36055294     0.35470
H306        H  0.45222855  0.45784459  0.33291104     0.40570
H307        H  0.05361775  0.01793989  0.42911508     0.40190
H308        H  0.05727157  0.04336647  0.40030255     0.35080
C309        C  0.47348849  0.39193650  0.24352145    -0.26650
C310        C  0.50104154  0.40753663  0.24979174    -0.14720
C311        C  0.02770426  0.39032095  0.25613567     0.35910
C312        C  0.02600785  0.35813799  0.25621193    -0.26100
C313        C  0.49846813  0.34252770  0.24989123    -0.15340
C314        C  0.47178850  0.35974675  0.24361532     0.36990
N315        N  0.44312659  0.34473838  0.23696545    -0.89590
H316        H  0.45296686  0.40492987  0.23856104     0.18110
H317        H  0.04653487  0.34516115  0.26119045     0.18100
N318        N  0.05633570  0.40532824  0.26292915    -0.88620
H319        H  0.42650758  0.36074627  0.23060941     0.35470
H320        H  0.43529926  0.33478030  0.25741585     0.40570
H321        H  0.06431344  0.41520560  0.24249806     0.40190
H322        H  0.07289801  0.38932832  0.26945173     0.35080
C323        C  0.47343773  0.14185204  0.24456594    -0.26650
C324        C  0.50119604  0.15754704  0.24951579    -0.14720
C325        C  0.02818159  0.14042824  0.25466565     0.35910
C326        C  0.02656450  0.10824330  0.25506421    -0.26100
C327        C  0.49878949  0.09254212  0.25017848    -0.15340
C328        C  0.47181148  0.10967436  0.24498359     0.36990
N329        N  0.44287528  0.09459207  0.23984597    -0.89590
H330        H  0.45267363  0.15475962  0.24047242     0.18110
H331        H  0.04733806  0.09534120  0.25912182     0.18100
N332        N  0.05709567  0.15553451  0.25985223    -0.88620
H333        H  0.42593879  0.11052747  0.23418861     0.35470
H334        H  0.43606436  0.08477012  0.26072157     0.40570
H335        H  0.06392565  0.16537497  0.23899190     0.40190
H336        H  0.07403613  0.13960627  0.26551668     0.35080
O337        O  0.47448996  0.99966127  0.79342489    -0.72110
O338        O  0.47583168  0.49926673  0.70605572    -0.72330
O339        O  0.47582332  0.45605015  0.74987982    -0.72190
O340        O  0.47445740  0.04300865  0.74948741    -0.72200
O341        O  0.02408651  0.04403138  0.75064966    -0.72160
O342        O  0.02547325  0.45703572  0.75032210    -0.72180
O343        O  0.02544918  0.00072164  0.70679722    -0.72120
O344        O  0.02418674  0.50040056  0.79408080    -0.72300
V345        V  0.47610311  0.49953866  0.74974148     1.35240
V346        V  0.02384083  0.50053068  0.75043771     1.35170
C347        C  0.99912940  0.49986227  0.80871564     0.77130
C348        C  0.00090313  0.49984292  0.69140417     0.77180
C349        C  0.50088674  0.44160466  0.75005531     0.77050
C350        C  0.49901425  0.05846341  0.75009076     0.77020
O351        O  0.02401530  0.25037104  0.79361885    -0.72110
O352        O  0.02519267  0.25096038  0.70624960    -0.72330
O353        O  0.02376909  0.29407348  0.75028889    -0.72190
O354        O  0.02544108  0.20712823  0.74968165    -0.72200
O355        O  0.47578829  0.20595869  0.74986033    -0.72160
O356        O  0.47414084  0.29294523  0.74874278    -0.72180
O357        O  0.47539568  0.24867196  0.70573905    -0.72120
O358        O  0.47437939  0.24995088  0.79296781    -0.72300
V359        V  0.02365430  0.25060111  0.74993350     1.35240
V360        V  0.47588615  0.24943580  0.74935094     1.35170
C361        C  0.49896183  0.25025135  0.80830942     0.77130
C362        C  0.50045977  0.24957134  0.69122807     0.77180
C363        C  0.49867689  0.30845010  0.74957538     0.77050
C364        C  0.50091268  0.19160927  0.74972796     0.77020
O365        O  0.22552572  0.49881601  0.79428732    -0.72110
O366        O  0.22519952  0.49974142  0.70667457    -0.72330
O367        O  0.22528763  0.45569386  0.75021185    -0.72190
O368        O  0.22498707  0.04287892  0.75099122    -0.72200
O369        O  0.27463396  0.04347387  0.74923013    -0.72160
O370        O  0.27510709  0.45602737  0.75119118    -0.72180
O371        O  0.27483959  0.49884759  0.70669329    -0.72120
O372        O  0.27518236  0.50073135  0.79373699    -0.72300
V373        V  0.22619262  0.49928559  0.75050338     1.35240
V374        V  0.27396957  0.49974075  0.75021817     1.35170
C375        C  0.25054661  0.49994938  0.80897727     0.77130
C376        C  0.25010925  0.49948267  0.69166258     0.77180
C377        C  0.25019413  0.44108014  0.75097859     0.77050
C378        C  0.24966550  0.05816092  0.75014089     0.77020
O379        O  0.27519391  0.25054069  0.79334212    -0.72110
O380        O  0.27509784  0.25192873  0.70601952    -0.72330
O381        O  0.27425348  0.29467638  0.75038077    -0.72190
O382        O  0.27596121  0.20736100  0.74885849    -0.72200
O383        O  0.22630706  0.20611519  0.75058096    -0.72160
O384        O  0.22444342  0.29344335  0.74911461    -0.72180
O385        O  0.22538438  0.24883063  0.70604520    -0.72120
O386        O  0.22538222  0.25045701  0.79345270    -0.72300
V387        V  0.27415751  0.25104398  0.74966178     1.35240
V388        V  0.22633429  0.24975763  0.74977451     1.35170
C389        C  0.25030196  0.25094819  0.80823944     0.77130
C390        C  0.25026418  0.25046202  0.69117925     0.77180
C391        C  0.24906411  0.30884651  0.74985135     0.77050
C392        C  0.25143787  0.19175698  0.74964134     0.77020
O393        O  0.99967729  0.47431626  0.95629097    -0.72110
O394        O  0.49958601  0.47424031  0.54367519    -0.72330
O395        O  0.45636561  0.47420968  0.99993484    -0.72190
O396        O  0.04305505  0.47417034  0.50001584    -0.72200
O397        O  0.04355526  0.02392657  0.00030278    -0.72160
O398        O  0.45637839  0.02396766  0.49974043    -0.72180
O399        O  0.99959381  0.02418583  0.54364899    -0.72120
O400        O  0.50057647  0.02425023  0.95640083    -0.72300
V401        V  0.99969482  0.47522188  0.99998252     1.35240
V402        V  0.99999206  0.02314093  0.50002275     1.35170
C403        C  0.00038535  0.99932535  0.94156647     0.77130
C404        C  0.99945961  0.99923577  0.55842126     0.77180
C405        C  0.44142754  0.99895283  0.49984385     0.77050
C406        C  0.05824580  0.99891272  0.50011203     0.77020
O407        O  0.49946592  0.22467977  0.95626193    -0.72110
O408        O  0.49980170  0.22584602  0.54365904    -0.72330
O409        O  0.45616714  0.22585165  0.00026765    -0.72190
O410        O  0.04314757  0.22462253  0.49960366    -0.72200
O411        O  0.04405865  0.27444998  0.99975115    -0.72160
O412        O  0.45701789  0.27557534  0.49895220    -0.72180
O413        O  0.00018240  0.27559522  0.54294705    -0.72120
O414        O  0.50106342  0.27460739  0.95573750    -0.72300
V415        V  0.49966524  0.22620494  0.99994222     1.35240
V416        V  0.50054444  0.27408623  0.49935709     1.35170
C417        C  0.50042869  0.24949902  0.94124392     0.77130
C418        C  0.49997155  0.25096697  0.55830443     0.77180
C419        C  0.44161621  0.25091029  0.49971872     0.77050
C420        C  0.05848804  0.24932392  0.49949125     0.77020
O421        O  0.25160663  0.02545117  0.95661181    -0.72110
O422        O  0.24841257  0.02529656  0.54394645    -0.72330
O423        O  0.29328103  0.02533353  0.00176475    -0.72190
O424        O  0.20662937  0.02557235  0.49876863    -0.72200
O425        O  0.20602669  0.47588734  0.00139674    -0.72160
O426        O  0.29317017  0.47566423  0.49891776    -0.72180
O427        O  0.25056045  0.47540802  0.54380061    -0.72120
O428        O  0.24811547  0.47563034  0.95656114    -0.72300
V429        V  0.24996642  0.02444916  0.00027336     1.35240
V430        V  0.24954001  0.47656441  0.50017286     1.35170
C431        C  0.24970817  0.50055428  0.94179167     0.77130
C432        C  0.24921244  0.50028356  0.55864179     0.77180
C433        C  0.30818952  0.50060875  0.50030477     0.77050
C434        C  0.19138608  0.50089017  0.50009202     0.77020
O435        O  0.25017948  0.27449713  0.95620338    -0.72110
O436        O  0.25037463  0.27353115  0.54361217    -0.72330
O437        O  0.29364506  0.27342437  0.99968729    -0.72190
O438        O  0.20666120  0.27463677  0.50019092    -0.72200
O439        O  0.20571614  0.22482177  0.99922124    -0.72160
O440        O  0.29275064  0.22368566  0.49955453    -0.72180
O441        O  0.24885053  0.22372969  0.54302926    -0.72120
O442        O  0.24922252  0.22462821  0.95573287    -0.72300
V443        V  0.25016814  0.27306312  0.99990511     1.35240
V444        V  0.24920442  0.22518645  0.49939172     1.35170
C445        C  0.24954935  0.24969381  0.94107958     0.77130
C446        C  0.24945037  0.24843661  0.55825422     0.77180
C447        C  0.30817404  0.24835629  0.49955562     0.77050
C448        C  0.19130144  0.24993711  0.49990970     0.77020
C449        C  0.39182472  0.22268934  0.50163703    -0.26650
C450        C  0.40745259  0.25095806  0.49997098    -0.14720
C451        C  0.39014272  0.27831857  0.99825421     0.35910
C452        C  0.35796461  0.27660039  0.99782689    -0.26100
C453        C  0.34233798  0.24832153  0.49941358    -0.15340
C454        C  0.35964783  0.22097329  0.50125001     0.36990
N455        N  0.34473950  0.19149621  0.50286745    -0.89590
H456        H  0.40478238  0.20157911  0.50301654     0.18110
H457        H  0.34500476  0.29771115  0.99646161     0.18100
N458        N  0.40505166  0.30780931  0.99687034    -0.88620
H459        H  0.36075555  0.17400174  0.00606870     0.35470
H460        H  0.33462538  0.18738359  0.98146357     0.40570
H461        H  0.41526084  0.31170591  0.51826973     0.40190
H462        H  0.38902953  0.32534009  0.49390513     0.35080
C463        C  0.14139179  0.22476656  0.98819639    -0.26650
C464        C  0.15732194  0.25018270  0.50016284    -0.14720
C465        C  0.14057654  0.27520807  0.51210774     0.35910
C466        C  0.10839109  0.27446243  0.51121080    -0.26100
C467        C  0.09246148  0.24905004  0.49924892    -0.15340
C468        C  0.10920311  0.22395257  0.98743510     0.36990
N469        N  0.09359467  0.19795161  0.97424995    -0.89590
H470        H  0.15413901  0.20560404  0.97885894     0.18110
H471        H  0.09564076  0.29362449  0.52054289     0.18100
N472        N  0.15618612  0.30100165  0.52568737    -0.88620
H473        H  0.10928329  0.18134816  0.96705117     0.35470
H474        H  0.08232037  0.20551775  0.95447158     0.40570
H475        H  0.16735005  0.29312586  0.54541963     0.40190
H476        H  0.14050370  0.31754728  0.53303401     0.35080
C477        C  0.35782257  0.47310949  0.99478692    -0.26650
C478        C  0.34231052  0.50079251  0.50010279    -0.14720
C479        C  0.35968642  0.02786920  0.50536068     0.35910
C480        C  0.39184246  0.02641234  0.50539125    -0.26100
C481        C  0.40733767  0.49873663  0.50007036    -0.15340
C482        C  0.38998536  0.47165923  0.99482367     0.36990
N483        N  0.40484122  0.44278232  0.98917750    -0.89590
H484        H  0.34478470  0.45228647  0.99067244     0.18110
H485        H  0.40489707  0.04722196  0.50953101     0.18100
N486        N  0.34486678  0.05678183  0.51091453    -0.88620
H487        H  0.38881404  0.42585544  0.98329823     0.35470
H488        H  0.41460706  0.43566569  0.00991889     0.40570
H489        H  0.33500610  0.06378644  0.49017877     0.40190
H490        H  0.36091432  0.07373839  0.51665136     0.35080
C491        C  0.14162995  0.47309593  0.50414473    -0.26650
C492        C  0.15731428  0.50105351  0.50021145    -0.14720
C493        C  0.14015770  0.02828893  0.99616170     0.35910
C494        C  0.10800422  0.02672897  0.99591640    -0.26100
C495        C  0.09232314  0.49877233  0.49988062    -0.15340
C496        C  0.10948544  0.47153137  0.50387744     0.36990
N497        N  0.09446115  0.44234189  0.50792909    -0.89590
H498        H  0.15451255  0.45212591  0.50728984     0.18110
H499        H  0.09510528  0.04768502  0.99274254     0.18100
N500        N  0.15519363  0.05747579  0.99213946    -0.88620
H501        H  0.11038009  0.42516066  0.51285777     0.35470
H502        H  0.08462301  0.43636188  0.48683613     0.40570
H503        H  0.16516659  0.06336214  0.01319550     0.40190
H504        H  0.13927050  0.07469221  0.98734941     0.35080
C505        C  0.23411684  0.22698616  0.64185965    -0.26650
C506        C  0.25031721  0.25018308  0.65726860    -0.14720
C507        C  0.26627618  0.27265240  0.64016456     0.35910
C508        C  0.26506678  0.27184603  0.60788778    -0.26100
C509        C  0.24951455  0.24821861  0.59232947    -0.15340
C510        C  0.23414281  0.22525944  0.60954966     0.36990
N511        N  0.21798966  0.20075421  0.59433130    -0.89590
H512        H  0.22204357  0.20968656  0.65516143     0.18110
H513        H  0.27694767  0.28940691  0.59476845     0.18100
N514        N  0.28294572  0.29666906  0.65556190    -0.88620
H515        H  0.20606335  0.18729650  0.61031782     0.35470
H516        H  0.23438180  0.18631403  0.58452756     0.40570
H517        H  0.30179997  0.28667582  0.66638315     0.40190
H518        H  0.29184364  0.31235880  0.63964751     0.35080
C519        C  0.23254405  0.22963357  0.85779105    -0.26650
C520        C  0.25020037  0.25166063  0.84214820    -0.14720
C521        C  0.26724977  0.27355737  0.85925525     0.35910
C522        C  0.26650972  0.27241999  0.89146047    -0.26100
C523        C  0.24929851  0.25004105  0.90708962    -0.15340
C524        C  0.23194675  0.22851846  0.89009707     0.36990
N525        N  0.21343780  0.20594589  0.90566997    -0.89590
H526        H  0.21936049  0.21303295  0.84468373     0.18110
H527        H  0.27960058  0.28921460  0.90441407     0.18100
N528        N  0.28444214  0.29801745  0.84507101    -0.88620
H529        H  0.20227018  0.19175248  0.88980573     0.35470
H530        H  0.19630990  0.21762665  0.91770450     0.40570
H531        H  0.28117482  0.29901890  0.82135772     0.40190
H532        H  0.30769210  0.29384923  0.84898309     0.35080
C533        C  0.22235240  0.49694535  0.64152445    -0.26650
C534        C  0.25028866  0.49994949  0.65740482    -0.14720
C535        C  0.27777973  0.00329135  0.64021652     0.35910
C536        C  0.27657083  0.00310498  0.60792569    -0.26100
C537        C  0.24869734  0.50010369  0.59238400    -0.15340
C538        C  0.22118077  0.49693240  0.60929614     0.36990
N539        N  0.19170620  0.49404838  0.59473256    -0.89590
H540        H  0.20109133  0.49448749  0.65421020     0.18110
H541        H  0.29752891  0.00557397  0.59470921     0.18100
N542        N  0.30682703  0.00709220  0.65537456    -0.88620
H543        H  0.18283301  0.47241664  0.60035423     0.35470
H544        H  0.19335447  0.49481138  0.57080459     0.40570
H545        H  0.30665171  0.02853916  0.66618786     0.40190
H546        H  0.32471444  0.00783635  0.63935939     0.35080
C547        C  0.22557975  0.48812214  0.85915448    -0.26650
C548        C  0.25093122  0.50016839  0.84311288    -0.14720
C549        C  0.27589320  0.01253710  0.85997340     0.35910
C550        C  0.27455118  0.01306268  0.89225711    -0.26100
C551        C  0.24948855  0.50055941  0.90801311    -0.15340
C552        C  0.22473220  0.48797484  0.89147695     0.36990
N553        N  0.19873076  0.47545801  0.90760312    -0.89590
H554        H  0.20645062  0.47854568  0.84644202     0.18110
H555        H  0.29350463  0.02260384  0.90528197     0.18100
N556        N  0.30226824  0.02503123  0.84445539    -0.88620
H557        H  0.18245474  0.46707357  0.89205830     0.35470
H558        H  0.18829292  0.49342965  0.91957393     0.40570
H559        H  0.31439714  0.00660365  0.83511341     0.40190
H560        H  0.31713943  0.03548313  0.86017260     0.35080
C561        C  0.25127884  0.39162248  0.72342368    -0.26650
C562        C  0.25002322  0.40730844  0.75154517    -0.14720
C563        C  0.24776704  0.39044850  0.77934647     0.35910
C564        C  0.24714831  0.35823334  0.77818561    -0.26100
C565        C  0.24856198  0.34262617  0.75003392    -0.15340
C566        C  0.25032766  0.35936968  0.72238953     0.36990
N567        N  0.25128990  0.34351447  0.69343870    -0.89590
H568        H  0.25274331  0.40463370  0.70220631     0.18110
H569        H  0.24564475  0.34527683  0.79943508     0.18100
N570        N  0.24581407  0.40505646  0.80897258    -0.88620
H571        H  0.25285908  0.35915114  0.67524726     0.35470
H572        H  0.23046091  0.33185340  0.69078010     0.40570
H573        H  0.24624040  0.42894480  0.80720501     0.40190
H574        H  0.26526513  0.39885297  0.82149433     0.35080
C575        C  0.27480543  0.10811632  0.73754485    -0.26650
C576        C  0.24951138  0.09234783  0.74999579    -0.14720
C577        C  0.22497266  0.10950462  0.76244694     0.35910
C578        C  0.22646424  0.14178387  0.76220934    -0.26100
C579        C  0.25176205  0.15756494  0.74977870    -0.15340
C580        C  0.27626252  0.14042199  0.73726325     0.36990
N581        N  0.30214128  0.15567934  0.72347888    -0.89590
H582        H  0.29357663  0.09513426  0.72778115     0.18110
H583        H  0.20766951  0.15474363  0.77196015     0.18100
N584        N  0.19898233  0.09429103  0.77609181    -0.88620
H585        H  0.31668994  0.13977339  0.71301356     0.35470
H586        H  0.31484813  0.16569332  0.74123505     0.40570
H587        H  0.18624570  0.08447504  0.75824638     0.40190
H588        H  0.18448874  0.11019567  0.78663794     0.35080
C589        C  0.00738931  0.27653954  0.64200911    -0.26650
C590        C  0.50073289  0.24914723  0.65748818    -0.14720
C591        C  0.49375510  0.22234409  0.64050356     0.35910
C592        C  0.49355334  0.22376770  0.60831476    -0.26100
C593        C  0.49992790  0.25127110  0.59251890    -0.15340
C594        C  0.00664650  0.27812533  0.60973193     0.36990
N595        N  0.01294783  0.30684831  0.59462515    -0.89590
H596        H  0.01254982  0.29699994  0.65527507     0.18110
H597        H  0.48823105  0.20303248  0.59557531     0.18100
N598        N  0.48693728  0.19334745  0.65493432    -0.88620
H599        H  0.01952449  0.32357521  0.61059254     0.35470
H600        H  0.99237268  0.31451352  0.58509324     0.40570
H601        H  0.48797887  0.19470246  0.67886168     0.40190
H602        H  0.50392182  0.17783490  0.64827868     0.35080
C603        C  0.02688575  0.25103029  0.85829473    -0.26650
C604        C  0.49871352  0.25031808  0.84255368    -0.14720
C605        C  0.47115284  0.24934796  0.85986788     0.35910
C606        C  0.47259603  0.24848280  0.89214803    -0.26100
C607        C  0.50071684  0.24928944  0.90752481    -0.15340
C608        C  0.02826571  0.25066412  0.89047563     0.36990
N609        N  0.05793661  0.25201649  0.90484830    -0.89590
H610        H  0.04821992  0.25197814  0.84554020     0.18110
H611        H  0.45159810  0.24768688  0.90549292     0.18100
N612        N  0.44179922  0.24931451  0.84487243    -0.88620
H613        H  0.06974529  0.23207189  0.89877564     0.35470
H614        H  0.05636607  0.25208867  0.92878790     0.40570
H615        H  0.43895652  0.27092356  0.83481495     0.40190
H616        H  0.42409701  0.24693013  0.86094335     0.35080
C617        C  0.02732036  0.00057196  0.60753096    -0.26650
C618        C  0.99920732  0.99933124  0.59214949    -0.14720
C619        C  0.47165431  0.49833515  0.60920410     0.35910
C620        C  0.47302736  0.49839735  0.64139217    -0.26100
C621        C  0.00118826  0.99947922  0.65714783    -0.15340
C622        C  0.02875068  0.00039607  0.63983161     0.36990
N623        N  0.05808925  0.00114682  0.65484462    -0.89590
H624        H  0.04831807  0.00135419  0.59418472     0.18110
H625        H  0.45168622  0.49759918  0.65414294     0.18100
N626        N  0.44197673  0.49704724  0.59482901    -0.88620
H627        H  0.07576834  0.50348778  0.63874260     0.35470
H628        H  0.06124206  0.47978193  0.66531966     0.40570
H629        H  0.44353691  0.99679553  0.57088526     0.40190
H630        H  0.43029701  0.01711960  0.60072939     0.35080
C631        C  0.47465936  0.48907226  0.89224299    -0.26650
C632        C  0.00080914  0.99944619  0.90779567    -0.14720
C633        C  0.02646603  0.00994590  0.89082628     0.35910
C634        C  0.02520566  0.00974444  0.85863857    -0.26100
C635        C  0.99895155  0.99956000  0.84285349    -0.15340
C636        C  0.47335593  0.48902588  0.85993993     0.36990
N637        N  0.44630935  0.47795900  0.84458716    -0.89590
H638        H  0.45509908  0.48106044  0.90544158     0.18110
H639        H  0.04503988  0.01774833  0.84586945     0.18100
N640        N  0.05443621  0.02002350  0.90523044    -0.88620
H641        H  0.42942512  0.47180272  0.86055294     0.35470
H642        H  0.45222860  0.45784456  0.83291104     0.40570
H643        H  0.05361775  0.01793990  0.92911508     0.40190
H644        H  0.05727156  0.04336647  0.90030255     0.35080
C645        C  0.47348850  0.39193651  0.74352144    -0.26650
C646        C  0.50104154  0.40753663  0.74979173    -0.14720
C647        C  0.02770426  0.39032095  0.75613564     0.35910
C648        C  0.02600786  0.35813799  0.75621191    -0.26100
C649        C  0.49846813  0.34252770  0.74989121    -0.15340
C650        C  0.47178850  0.35974676  0.74361531     0.36990
N651        N  0.44312659  0.34473839  0.73696544    -0.89590
H652        H  0.45296687  0.40492988  0.73856103     0.18110
H653        H  0.04653487  0.34516115  0.76119041     0.18100
N654        N  0.05633571  0.40532824  0.76292911    -0.88620
H655        H  0.42650758  0.36074628  0.73060940     0.35470
H656        H  0.43529926  0.33478031  0.75741584     0.40570
H657        H  0.06431344  0.41520560  0.74249802     0.40190
H658        H  0.07289802  0.38932832  0.76945168     0.35080
C659        C  0.47343772  0.14185205  0.74456595    -0.26650
C660        C  0.50119603  0.15754705  0.74951580    -0.14720
C661        C  0.02818159  0.14042825  0.75466565     0.35910
C662        C  0.02656449  0.10824331  0.75506421    -0.26100
C663        C  0.49878949  0.09254213  0.75017849    -0.15340
C664        C  0.47181147  0.10967437  0.74498361     0.36990
N665        N  0.44287526  0.09459208  0.73984600    -0.89590
H666        H  0.45267361  0.15475963  0.74047245     0.18110
H667        H  0.04733806  0.09534121  0.75912181     0.18100
N668        N  0.05709567  0.15553452  0.75985221    -0.88620
H669        H  0.42593878  0.11052747  0.73418864     0.35470
H670        H  0.43606436  0.08477013  0.76072160     0.40570
H671        H  0.06392564  0.16537498  0.73899188     0.40190
H672        H  0.07403613  0.13960628  0.76551665     0.35080
O673        O  0.47448993  0.49966126  0.29342490    -0.72110
O674        O  0.47583170  0.99926672  0.20605572    -0.72330
O675        O  0.47582333  0.95605014  0.24987983    -0.72190
O676        O  0.47445737  0.54300864  0.24948741    -0.72200
O677        O  0.02408653  0.54403137  0.25064966    -0.72160
O678        O  0.02547325  0.95703572  0.25032211    -0.72180
O679        O  0.02544918  0.50072162  0.20679722    -0.72120
O680        O  0.02418672  0.00040057  0.29408081    -0.72300
V681        V  0.47610313  0.99953866  0.24974148     1.35240
V682        V  0.02384082  0.00053068  0.25043772     1.35170
C683        C  0.99912939  0.99986227  0.30871564     0.77130
C684        C  0.00090312  0.99984291  0.19140417     0.77180
C685        C  0.50088675  0.94160466  0.25005531     0.77050
C686        C  0.49901421  0.55846340  0.25009076     0.77020
O687        O  0.02401535  0.75037106  0.29361884    -0.72110
O688        O  0.02519269  0.75096035  0.20624959    -0.72330
O689        O  0.02376912  0.79407347  0.25028885    -0.72190
O690        O  0.02544112  0.70712823  0.24968166    -0.72200
O691        O  0.47578827  0.70595869  0.24986034    -0.72160
O692        O  0.47414083  0.79294522  0.24874276    -0.72180
O693        O  0.47539569  0.74867194  0.20573905    -0.72120
O694        O  0.47437936  0.74995089  0.29296781    -0.72300
V695        V  0.02365433  0.75060111  0.24993349     1.35240
V696        V  0.47588614  0.74943579  0.24935094     1.35170
C697        C  0.49896180  0.75025133  0.30830942     0.77130
C698        C  0.50045978  0.74957133  0.19122807     0.77180
C699        C  0.49867688  0.80845009  0.24957540     0.77050
C700        C  0.50091266  0.69160926  0.24972796     0.77020
O701        O  0.22552571  0.99881599  0.29428732    -0.72110
O702        O  0.22519950  0.99974142  0.20667457    -0.72330
O703        O  0.22528762  0.95569386  0.25021184    -0.72190
O704        O  0.22498709  0.54287892  0.25099121    -0.72200
O705        O  0.27463398  0.54347386  0.24923013    -0.72160
O706        O  0.27510708  0.95602736  0.25119117    -0.72180
O707        O  0.27483957  0.99884759  0.20669328    -0.72120
O708        O  0.27518235  0.00073134  0.29373699    -0.72300
V709        V  0.22619261  0.99928559  0.25050338     1.35240
V710        V  0.27396955  0.99974075  0.25021816     1.35170
C711        C  0.25054660  0.99994936  0.30897727     0.77130
C712        C  0.25010923  0.99948267  0.19166258     0.77180
C713        C  0.25019412  0.94108013  0.25097858     0.77050
C714        C  0.24966552  0.55816091  0.25014088     0.77020
O715        O  0.27519391  0.75054068  0.29334212    -0.72110
O716        O  0.27509784  0.75192872  0.20601951    -0.72330
O717        O  0.27425347  0.79467638  0.25038076    -0.72190
O718        O  0.27596122  0.70736100  0.24885849    -0.72200
O719        O  0.22630707  0.70611518  0.25058096    -0.72160
O720        O  0.22444341  0.79344334  0.24911461    -0.72180
O721        O  0.22538438  0.74883061  0.20604520    -0.72120
O722        O  0.22538223  0.75045700  0.29345270    -0.72300
V723        V  0.27415752  0.75104397  0.24966178     1.35240
V724        V  0.22633429  0.74975761  0.24977451     1.35170
C725        C  0.25030197  0.75094819  0.30823944     0.77130
C726        C  0.25026418  0.75046202  0.19117925     0.77180
C727        C  0.24906410  0.80884650  0.24985134     0.77050
C728        C  0.25143788  0.69175697  0.24964134     0.77020
O729        O  0.99967729  0.97431624  0.45629098    -0.72110
O730        O  0.49958600  0.97424032  0.04367518    -0.72330
O731        O  0.45636562  0.97420967  0.49993484    -0.72190
O732        O  0.04305505  0.97417034  0.00001584    -0.72200
O733        O  0.04355525  0.52392657  0.50030279    -0.72160
O734        O  0.45637839  0.52396767  0.99974044    -0.72180
O735        O  0.99959382  0.52418585  0.04364898    -0.72120
O736        O  0.50057647  0.52425021  0.45640083    -0.72300
V737        V  0.99969483  0.97522187  0.49998253     1.35240
V738        V  0.99999206  0.52314095  0.00002274     1.35170
C739        C  0.00038535  0.49932534  0.44156647     0.77130
C740        C  0.99945961  0.49923579  0.05842126     0.77180
C741        C  0.44142753  0.49895285  0.99984386     0.77050
C742        C  0.05824579  0.49891273  0.00011201     0.77020
O743        O  0.49946592  0.72467976  0.45626195    -0.72110
O744        O  0.49980168  0.72584602  0.04365905    -0.72330
O745        O  0.45616713  0.72585165  0.50026766    -0.72190
O746        O  0.04314757  0.72462253  0.99960363    -0.72200
O747        O  0.04405866  0.77444998  0.49975116    -0.72160
O748        O  0.45701788  0.77557533  0.99895219    -0.72180
O749        O  0.00018240  0.77559520  0.04294705    -0.72120
O750        O  0.50106341  0.77460738  0.45573751    -0.72300
V751        V  0.49966523  0.72620493  0.49994223     1.35240
V752        V  0.50054443  0.77408622  0.99935708     1.35170
C753        C  0.50042868  0.74949900  0.44124393     0.77130
C754        C  0.49997153  0.75096697  0.05830443     0.77180
C755        C  0.44161619  0.75091028  0.99971872     0.77050
C756        C  0.05848804  0.74932391  0.99949122     0.77020
O757        O  0.25160661  0.52545117  0.45661181    -0.72110
O758        O  0.24841257  0.52529656  0.04394646    -0.72330
O759        O  0.29328103  0.52533353  0.50176474    -0.72190
O760        O  0.20662937  0.52557235  0.99876864    -0.72200
O761        O  0.20602669  0.97588733  0.50139673    -0.72160
O762        O  0.29317017  0.97566422  0.99891777    -0.72180
O763        O  0.25056045  0.97540801  0.04380061    -0.72120
O764        O  0.24811548  0.97563032  0.45656115    -0.72300
V765        V  0.24996642  0.52444917  0.50027336     1.35240
V766        V  0.24954002  0.97656441  0.00017286     1.35170
C767        C  0.24970819  0.00055426  0.44179166     0.77130
C768        C  0.24921242  0.00028356  0.05864179     0.77180
C769        C  0.30818952  0.00060875  0.00030478     0.77050
C770        C  0.19138608  0.00089016  0.00009200     0.77020
O771        O  0.25017948  0.77449714  0.45620338    -0.72110
O772        O  0.25037463  0.77353114  0.04361217    -0.72330
O773        O  0.29364506  0.77342438  0.49968730    -0.72190
O774        O  0.20666120  0.77463677  0.00019093    -0.72200
O775        O  0.20571614  0.72482178  0.49922124    -0.72160
O776        O  0.29275063  0.72368566  0.99955453    -0.72180
O777        O  0.24885051  0.72372969  0.04302926    -0.72120
O778        O  0.24922252  0.72462822  0.45573287    -0.72300
V779        V  0.25016814  0.77306313  0.49990512     1.35240
V780        V  0.24920441  0.72518645  0.99939172     1.35170
C781        C  0.24954935  0.74969381  0.44107959     0.77130
C782        C  0.24945037  0.74843661  0.05825422     0.77180
C783        C  0.30817404  0.74835629  0.99955562     0.77050
C784        C  0.19130144  0.74993711  0.99990969     0.77020
C785        C  0.39182471  0.72268932  0.00163702    -0.26650
C786        C  0.40745258  0.75095805  0.99997097    -0.14720
C787        C  0.39014271  0.77831857  0.49825423     0.35910
C788        C  0.35796460  0.77660039  0.49782691    -0.26100
C789        C  0.34233797  0.74832152  0.99941357    -0.15340
C790        C  0.35964782  0.72097327  0.00124998     0.36990
N791        N  0.34473949  0.69149620  0.00286741    -0.89590
H792        H  0.40478237  0.70157910  0.00301652     0.18110
H793        H  0.34500475  0.79771115  0.49646162     0.18100
N794        N  0.40505165  0.80780931  0.49687035    -0.88620
H795        H  0.36075554  0.67400174  0.50606879     0.35470
H796        H  0.33462537  0.68738357  0.48146364     0.40570
H797        H  0.41526084  0.81170589  0.01826974     0.40190
H798        H  0.38902952  0.82534008  0.99390515     0.35080
C799        C  0.14139179  0.72476657  0.48819641    -0.26650
C800        C  0.15732194  0.75018271  0.00016282    -0.14720
C801        C  0.14057653  0.77520808  0.01210771     0.35910
C802        C  0.10839108  0.77446243  0.01121077    -0.26100
C803        C  0.09246148  0.74905004  0.99924888    -0.15340
C804        C  0.10920312  0.72395257  0.48743511     0.36990
N805        N  0.09359468  0.69795160  0.47424997    -0.89590
H806        H  0.15413901  0.70560405  0.47885895     0.18110
H807        H  0.09564075  0.79362449  0.02054285     0.18100
N808        N  0.15618611  0.80100166  0.02568734    -0.88620
H809        H  0.10928330  0.68134816  0.46705119     0.35470
H810        H  0.08232038  0.70551774  0.45447160     0.40570
H811        H  0.16735004  0.79312588  0.04541961     0.40190
H812        H  0.14050369  0.81754729  0.03303397     0.35080
C813        C  0.35782257  0.97310947  0.49478693    -0.26650
C814        C  0.34231053  0.00079252  0.00010280    -0.14720
C815        C  0.35968641  0.52786922  0.00536068     0.35910
C816        C  0.39184245  0.52641236  0.00539124    -0.26100
C817        C  0.40733768  0.99873664  0.00007035    -0.15340
C818        C  0.38998537  0.97165921  0.49482368     0.36990
N819        N  0.40484122  0.94278230  0.48917750    -0.89590
H820        H  0.34478470  0.95228645  0.49067245     0.18110
H821        H  0.40489706  0.54722198  0.00953101     0.18100
N822        N  0.34486677  0.55678185  0.01091452    -0.88620
H823        H  0.38881404  0.92585542  0.48329824     0.35470
H824        H  0.41460707  0.93566567  0.50991890     0.40570
H825        H  0.33500610  0.56378646  0.99017876     0.40190
H826        H  0.36091432  0.57373841  0.01665134     0.35080
C827        C  0.14162995  0.97309591  0.00414467    -0.26650
C828        C  0.15731428  0.00105350  0.00021142    -0.14720
C829        C  0.14015769  0.52828894  0.49616172     0.35910
C830        C  0.10800421  0.52672897  0.49591641    -0.26100
C831        C  0.09232314  0.99877233  0.99988060    -0.15340
C832        C  0.10948544  0.97153136  0.00387738     0.36990
N833        N  0.09446115  0.94234188  0.00792901    -0.89590
H834        H  0.15451255  0.95212589  0.00728977     0.18110
H835        H  0.09510527  0.54768502  0.49274253     0.18100
N836        N  0.15519362  0.55747580  0.49213946    -0.88620
H837        H  0.11038009  0.92516063  0.01285766     0.35470
H838        H  0.08462300  0.93636189  0.98683604     0.40570
H839        H  0.16516658  0.56336216  0.51319550     0.40190
H840        H  0.13927049  0.57469222  0.48734940     0.35080
C841        C  0.23411685  0.72698615  0.14185965    -0.26650
C842        C  0.25031720  0.75018307  0.15726860    -0.14720
C843        C  0.26627616  0.77265240  0.14016456     0.35910
C844        C  0.26506676  0.77184603  0.10788778    -0.26100
C845        C  0.24951455  0.74821860  0.09232947    -0.15340
C846        C  0.23414282  0.72525943  0.10954966     0.36990
N847        N  0.21798968  0.70075419  0.09433129    -0.89590
H848        H  0.22204358  0.70968654  0.15516143     0.18110
H849        H  0.27694765  0.78940692  0.09476845     0.18100
N850        N  0.28294569  0.79666908  0.15556190    -0.88620
H851        H  0.20606337  0.68729647  0.11031781     0.35470
H852        H  0.23438183  0.68631402  0.08452756     0.40570
H853        H  0.30179994  0.78667585  0.16638315     0.40190
H854        H  0.29184360  0.81235882  0.13964751     0.35080
C855        C  0.23254407  0.72963356  0.35779106    -0.26650
C856        C  0.25020038  0.75166063  0.34214820    -0.14720
C857        C  0.26724978  0.77355737  0.35925525     0.35910
C858        C  0.26650973  0.77242000  0.39146047    -0.26100
C859        C  0.24929851  0.75004105  0.40708962    -0.15340
C860        C  0.23194676  0.72851846  0.39009707     0.36990
N861        N  0.21343782  0.70594589  0.40566997    -0.89590
H862        H  0.21936050  0.71303295  0.34468373     0.18110
H863        H  0.27960059  0.78921461  0.40441407     0.18100
N864        N  0.28444215  0.79801745  0.34507101    -0.88620
H865        H  0.20227019  0.69175248  0.38980573     0.35470
H866        H  0.19630991  0.71762665  0.41770450     0.40570
H867        H  0.28117483  0.79901890  0.32135772     0.40190
H868        H  0.30769211  0.79384924  0.34898310     0.35080
C869        C  0.22235237  0.99694539  0.14152445    -0.26650
C870        C  0.25028864  0.99994950  0.15740482    -0.14720
C871        C  0.27777975  0.50329130  0.14021652     0.35910
C872        C  0.27657085  0.50310495  0.10792569    -0.26100
C873        C  0.24869732  0.00010368  0.09238400    -0.15340
C874        C  0.22118075  0.99693243  0.10929614     0.36990
N875        N  0.19170618  0.99404845  0.09473256    -0.89590
H876        H  0.20109130  0.99448756  0.15421019     0.18110
H877        H  0.29752893  0.50557392  0.09470921     0.18100
N878        N  0.30682706  0.50709213  0.15537456    -0.88620
H879        H  0.18283295  0.97241672  0.10035424     0.35470
H880        H  0.19335445  0.99481142  0.07080459     0.40570
H881        H  0.30665176  0.52853908  0.16618786     0.40190
H882        H  0.32471447  0.50783626  0.13935938     0.35080
C883        C  0.22557976  0.98812210  0.35915448    -0.26650
C884        C  0.25093122  0.00016837  0.34311288    -0.14720
C885        C  0.27589320  0.51253708  0.35997341     0.35910
C886        C  0.27455118  0.51306267  0.39225711    -0.26100
C887        C  0.24948856  0.00055939  0.40801311    -0.15340
C888        C  0.22473222  0.98797480  0.39147695     0.36990
N889        N  0.19873079  0.97545795  0.40760312    -0.89590
H890        H  0.20645064  0.97854563  0.34644202     0.18110
H891        H  0.29350463  0.52260382  0.40528198     0.18100
N892        N  0.30226826  0.52503119  0.34445540    -0.88620
H893        H  0.18245477  0.96707350  0.39205830     0.35470
H894        H  0.18829293  0.99342958  0.41957394     0.40570
H895        H  0.31439715  0.50660359  0.33511343     0.40190
H896        H  0.31713946  0.53548307  0.36017262     0.35080
C897        C  0.25127878  0.89162247  0.22342366    -0.26650
C898        C  0.25002321  0.90730844  0.25154516    -0.14720
C899        C  0.24776708  0.89044849  0.27934646     0.35910
C900        C  0.24714834  0.85823333  0.27818560    -0.26100
C901        C  0.24856196  0.84262616  0.25003391    -0.15340
C902        C  0.25032760  0.85936967  0.22238951     0.36990
N903        N  0.25128979  0.84351446  0.19343869    -0.89590
H904        H  0.25274322  0.90463369  0.20220629     0.18110
H905        H  0.24564482  0.84527682  0.29943508     0.18100
N906        N  0.24581416  0.90505645  0.30897258    -0.88620
H907        H  0.25285895  0.85915113  0.17524724     0.35470
H908        H  0.23046080  0.83185339  0.19078012     0.40570
H909        H  0.24624049  0.92894479  0.30720500     0.40190
H910        H  0.26526524  0.89885295  0.32149429     0.35080
C911        C  0.27480545  0.60811631  0.23754483    -0.26650
C912        C  0.24951141  0.59234782  0.24999578    -0.14720
C913        C  0.22497269  0.60950461  0.26244695     0.35910
C914        C  0.22646427  0.64178386  0.26220935    -0.26100
C915        C  0.25176207  0.65756493  0.24977870    -0.15340
C916        C  0.27626253  0.64042198  0.23726323     0.36990
N917        N  0.30214129  0.65567933  0.22347885    -0.89590
H918        H  0.29357665  0.59513425  0.22778113     0.18110
H919        H  0.20766953  0.65474362  0.27196017     0.18100
N920        N  0.19898236  0.59429102  0.27609182    -0.88620
H921        H  0.31668994  0.63977338  0.21301353     0.35470
H922        H  0.31484814  0.66569332  0.24123502     0.40570
H923        H  0.18624572  0.58447503  0.25824639     0.40190
H924        H  0.18448877  0.61019566  0.28663796     0.35080
C925        C  0.00738925  0.77653955  0.14200910    -0.26650
C926        C  0.50073291  0.74914723  0.15748819    -0.14720
C927        C  0.49375505  0.72234411  0.14050356     0.35910
C928        C  0.49355325  0.72376772  0.10831476    -0.26100
C929        C  0.49992788  0.75127111  0.09251891    -0.15340
C930        C  0.00664646  0.77812532  0.10973192     0.36990
N931        N  0.01294774  0.80684831  0.09462513    -0.89590
H932        H  0.01254970  0.79699996  0.15527506     0.18110
H933        H  0.48823091  0.70303252  0.09557532     0.18100
N934        N  0.48693721  0.69334747  0.15493432    -0.88620
H935        H  0.01952435  0.82357523  0.11059252     0.35470
H936        H  0.99237257  0.81451347  0.08509322     0.40570
H937        H  0.48797886  0.69470246  0.17886168     0.40190
H938        H  0.50392170  0.67783489  0.14827863     0.35080
C939        C  0.02688580  0.75103029  0.35829474    -0.26650
C940        C  0.49871348  0.75031807  0.34255368    -0.14720
C941        C  0.47115281  0.74934796  0.35986789     0.35910
C942        C  0.47259600  0.74848280  0.39214804    -0.26100
C943        C  0.50071681  0.74928943  0.40752482    -0.15340
C944        C  0.02826575  0.75066414  0.39047564     0.36990
N945        N  0.05793665  0.75201650  0.40484832    -0.89590
H946        H  0.04821997  0.75197814  0.34554021     0.18110
H947        H  0.45159808  0.74768689  0.40549294     0.18100
N948        N  0.44179918  0.74931454  0.34487244    -0.88620
H949        H  0.06974532  0.73207190  0.39877567     0.35470
H950        H  0.05636610  0.75208870  0.42878792     0.40570
H951        H  0.43895650  0.77092359  0.33481496     0.40190
H952        H  0.42409697  0.74693018  0.36094337     0.35080
C953        C  0.02732036  0.50057199  0.10753096    -0.26650
C954        C  0.99920733  0.49933126  0.09214949    -0.14720
C955        C  0.47165432  0.99833515  0.10920409     0.35910
C956        C  0.47302737  0.99839735  0.14139217    -0.26100
C957        C  0.00118826  0.49947922  0.15714783    -0.15340
C958        C  0.02875068  0.50039610  0.13983161     0.36990
N959        N  0.05808925  0.50114686  0.15484462    -0.89590
H960        H  0.04831807  0.50135423  0.09418471     0.18110
H961        H  0.45168623  0.99759917  0.15414294     0.18100
N962        N  0.44197674  0.99704723  0.09482901    -0.88620
H963        H  0.07576834  0.00348776  0.13874261     0.35470
H964        H  0.06124205  0.97978192  0.16531967     0.40570
H965        H  0.44353691  0.49679554  0.07088525     0.40190
H966        H  0.43029700  0.51711960  0.10072938     0.35080
C967        C  0.47465938  0.98907227  0.39224298    -0.26650
C968        C  0.00080914  0.49944618  0.40779567    -0.14720
C969        C  0.02646604  0.50994588  0.39082628     0.35910
C970        C  0.02520567  0.50974441  0.35863857    -0.26100
C971        C  0.99895156  0.49955999  0.34285349    -0.15340
C972        C  0.47335594  0.98902589  0.35993993     0.36990
N973        N  0.44630936  0.97795902  0.34458716    -0.89590
H974        H  0.45509909  0.98106046  0.40544158     0.18110
H975        H  0.04503989  0.51774830  0.34586945     0.18100
N976        N  0.05443622  0.52002346  0.40523044    -0.88620
H977        H  0.42942513  0.97180276  0.36055293     0.35470
H978        H  0.45222859  0.95784459  0.33291104     0.40570
H979        H  0.05361776  0.51793986  0.42911508     0.40190
H980        H  0.05727159  0.54336643  0.40030255     0.35080
C981        C  0.47348850  0.89193650  0.24352145    -0.26650
C982        C  0.50104154  0.90753662  0.24979175    -0.14720
C983        C  0.02770428  0.89032095  0.25613565     0.35910
C984        C  0.02600788  0.85813799  0.25621192    -0.26100
C985        C  0.49846812  0.84252770  0.24989124    -0.15340
C986        C  0.47178850  0.85974676  0.24361533     0.36990
N987        N  0.44312658  0.84473839  0.23696545    -0.89590
H988        H  0.45296687  0.90492988  0.23856103     0.18110
H989        H  0.04653490  0.84516115  0.26119042     0.18100
N990        N  0.05633572  0.90532824  0.26292914    -0.88620
H991        H  0.42650758  0.86074628  0.23060941     0.35470
H992        H  0.43529925  0.83478030  0.25741585     0.40570
H993        H  0.06431345  0.91520561  0.24249804     0.40190
H994        H  0.07289804  0.88932832  0.26945170     0.35080
C995        C  0.47343769  0.64185204  0.24456594    -0.26650
C996        C  0.50119600  0.65754704  0.24951579    -0.14720
C997        C  0.02818162  0.64042824  0.25466565     0.35910
C998        C  0.02656452  0.60824330  0.25506421    -0.26100
C999        C  0.49878945  0.59254212  0.25017849    -0.15340
C1000       C  0.47181144  0.60967436  0.24498359     0.36990
N1001       N  0.44287523  0.59459208  0.23984597    -0.89590
H1002       H  0.45267359  0.65475963  0.24047242     0.18110
H1003       H  0.04733808  0.59534120  0.25912182     0.18100
N1004       N  0.05709570  0.65553451  0.25985223    -0.88620
H1005       H  0.42593875  0.61052747  0.23418861     0.35470
H1006       H  0.43606432  0.58477013  0.26072158     0.40570
H1007       H  0.06392568  0.66537497  0.23899190     0.40190
H1008       H  0.07403616  0.63960627  0.26551667     0.35080
O1009       O  0.47448994  0.49966126  0.79342489    -0.72110
O1010       O  0.47583169  0.99926674  0.70605572    -0.72330
O1011       O  0.47582333  0.95605015  0.74987982    -0.72190
O1012       O  0.47445738  0.54300864  0.74948741    -0.72200
O1013       O  0.02408654  0.54403137  0.75064966    -0.72160
O1014       O  0.02547326  0.95703573  0.75032210    -0.72180
O1015       O  0.02544919  0.50072162  0.70679722    -0.72120
O1016       O  0.02418673  0.00040057  0.79408081    -0.72300
V1017       V  0.47610313  0.99953867  0.74974148     1.35240
V1018       V  0.02384082  0.00053069  0.75043771     1.35170
C1019       C  0.99912940  0.99986227  0.80871564     0.77130
C1020       C  0.00090312  0.99984293  0.69140417     0.77180
C1021       C  0.50088675  0.94160467  0.75005530     0.77050
C1022       C  0.49901422  0.55846340  0.75009076     0.77020
O1023       O  0.02401534  0.75037107  0.79361884    -0.72110
O1024       O  0.02519269  0.75096035  0.70624959    -0.72330
O1025       O  0.02376912  0.79407348  0.75028885    -0.72190
O1026       O  0.02544111  0.70712823  0.74968167    -0.72200
O1027       O  0.47578827  0.70595869  0.74986035    -0.72160
O1028       O  0.47414084  0.79294523  0.74874275    -0.72180
O1029       O  0.47539569  0.74867194  0.70573905    -0.72120
O1030       O  0.47437936  0.74995091  0.79296781    -0.72300
V1031       V  0.02365433  0.75060111  0.74993350     1.35240
V1032       V  0.47588615  0.74943580  0.74935094     1.35170
C1033       C  0.49896181  0.75025135  0.80830942     0.77130
C1034       C  0.50045978  0.74957133  0.69122807     0.77180
C1035       C  0.49867689  0.80845010  0.74957538     0.77050
C1036       C  0.50091266  0.69160926  0.74972797     0.77020
O1037       O  0.22552572  0.99881600  0.79428732    -0.72110
O1038       O  0.22519951  0.99974143  0.70667457    -0.72330
O1039       O  0.22528763  0.95569386  0.75021184    -0.72190
O1040       O  0.22498707  0.54287892  0.75099120    -0.72200
O1041       O  0.27463397  0.54347387  0.74923013    -0.72160
O1042       O  0.27510710  0.95602738  0.75119116    -0.72180
O1043       O  0.27483958  0.99884761  0.70669328    -0.72120
O1044       O  0.27518236  0.00073135  0.79373699    -0.72300
V1045       V  0.22619262  0.99928560  0.75050338     1.35240
V1046       V  0.27396956  0.99974076  0.75021816     1.35170
C1047       C  0.25054661  0.99994937  0.80897727     0.77130
C1048       C  0.25010924  0.99948268  0.69166258     0.77180
C1049       C  0.25019414  0.94108014  0.75097858     0.77050
C1050       C  0.24966550  0.55816092  0.75014088     0.77020
O1051       O  0.27519394  0.75054068  0.79334211    -0.72110
O1052       O  0.27509784  0.75192874  0.70601951    -0.72330
O1053       O  0.27425350  0.79467638  0.75038077    -0.72190
O1054       O  0.27596122  0.70736100  0.74885847    -0.72200
O1055       O  0.22630708  0.70611519  0.75058098    -0.72160
O1056       O  0.22444344  0.79344335  0.74911461    -0.72180
O1057       O  0.22538438  0.74883062  0.70604521    -0.72120
O1058       O  0.22538226  0.75045702  0.79345271    -0.72300
V1059       V  0.27415753  0.75104398  0.74966177     1.35240
V1060       V  0.22633430  0.74975763  0.74977452     1.35170
C1061       C  0.25030200  0.75094819  0.80823944     0.77130
C1062       C  0.25026417  0.75046203  0.69117925     0.77180
C1063       C  0.24906413  0.80884651  0.74985135     0.77050
C1064       C  0.25143788  0.69175698  0.74964134     0.77020
O1065       O  0.99967731  0.97431625  0.95629099    -0.72110
O1066       O  0.49958601  0.97424030  0.54367517    -0.72330
O1067       O  0.45636562  0.97420969  0.99993483    -0.72190
O1068       O  0.04305505  0.97417034  0.50001582    -0.72200
O1069       O  0.04355525  0.52392657  0.00030279    -0.72160
O1070       O  0.45637839  0.52396766  0.49974045    -0.72180
O1071       O  0.99959381  0.52418585  0.54364898    -0.72120
O1072       O  0.50057647  0.52425023  0.95640083    -0.72300
V1073       V  0.99969483  0.97522188  0.99998253     1.35240
V1074       V  0.99999206  0.52314094  0.50002274     1.35170
C1075       C  0.00038534  0.49932537  0.94156646     0.77130
C1076       C  0.99945960  0.49923580  0.55842126     0.77180
C1077       C  0.44142753  0.49895284  0.49984386     0.77050
C1078       C  0.05824579  0.49891273  0.50011203     0.77020
O1079       O  0.49946591  0.72467975  0.95626194    -0.72110
O1080       O  0.49980168  0.72584603  0.54365906    -0.72330
O1081       O  0.45616712  0.72585164  0.00026765    -0.72190
O1082       O  0.04314757  0.72462253  0.49960365    -0.72200
O1083       O  0.04405865  0.77444997  0.99975116    -0.72160
O1084       O  0.45701788  0.77557534  0.49895220    -0.72180
O1085       O  0.00018241  0.77559520  0.54294705    -0.72120
O1086       O  0.50106340  0.77460737  0.95573751    -0.72300
V1087       V  0.49966523  0.72620492  0.99994223     1.35240
V1088       V  0.50054443  0.77408622  0.49935709     1.35170
C1089       C  0.50042867  0.74949899  0.94124393     0.77130
C1090       C  0.49997153  0.75096698  0.55830444     0.77180
C1091       C  0.44161619  0.75091029  0.49971873     0.77050
C1092       C  0.05848805  0.74932392  0.49949124     0.77020
O1093       O  0.25160661  0.52545119  0.95661182    -0.72110
O1094       O  0.24841258  0.52529656  0.54394646    -0.72330
O1095       O  0.29328102  0.52533354  0.00176475    -0.72190
O1096       O  0.20662937  0.52557235  0.49876864    -0.72200
O1097       O  0.20602670  0.97588732  0.00139673    -0.72160
O1098       O  0.29317017  0.97566422  0.49891777    -0.72180
O1099       O  0.25056044  0.97540802  0.54380061    -0.72120
O1100       O  0.24811549  0.97563032  0.95656114    -0.72300
V1101       V  0.24996641  0.52444917  0.00027337     1.35240
V1102       V  0.24954001  0.97656441  0.50017286     1.35170
C1103       C  0.24970820  0.00055426  0.94179166     0.77130
C1104       C  0.24921243  0.00028356  0.55864179     0.77180
C1105       C  0.30818952  0.00060875  0.50030477     0.77050
C1106       C  0.19138608  0.00089017  0.50009201     0.77020
O1107       O  0.25017947  0.77449713  0.95620338    -0.72110
O1108       O  0.25037462  0.77353115  0.54361217    -0.72330
O1109       O  0.29364506  0.77342437  0.99968729    -0.72190
O1110       O  0.20666120  0.77463678  0.50019092    -0.72200
O1111       O  0.20571613  0.72482177  0.99922124    -0.72160
O1112       O  0.29275064  0.72368566  0.49955454    -0.72180
O1113       O  0.24885052  0.72372970  0.54302926    -0.72120
O1114       O  0.24922252  0.72462821  0.95573287    -0.72300
V1115       V  0.25016814  0.77306312  0.99990512     1.35240
V1116       V  0.24920441  0.72518646  0.49939172     1.35170
C1117       C  0.24954934  0.74969381  0.94107959     0.77130
C1118       C  0.24945036  0.74843662  0.55825422     0.77180
C1119       C  0.30817404  0.74835630  0.49955563     0.77050
C1120       C  0.19130144  0.74993712  0.49990969     0.77020
C1121       C  0.39182471  0.72268933  0.50163705    -0.26650
C1122       C  0.40745258  0.75095806  0.49997099    -0.14720
C1123       C  0.39014271  0.77831856  0.99825422     0.35910
C1124       C  0.35796460  0.77660038  0.99782689    -0.26100
C1125       C  0.34233797  0.74832153  0.49941360    -0.15340
C1126       C  0.35964782  0.72097329  0.50125003     0.36990
N1127       N  0.34473950  0.69149621  0.50286748    -0.89590
H1128       H  0.40478237  0.70157911  0.50301656     0.18110
H1129       H  0.34500475  0.79771114  0.99646162     0.18100
N1130       N  0.40505165  0.80780930  0.99687035    -0.88620
H1131       H  0.36075554  0.67400173  0.00606871     0.35470
H1132       H  0.33462536  0.68738358  0.98146357     0.40570
H1133       H  0.41526084  0.81170591  0.51826975     0.40190
H1134       H  0.38902952  0.82534009  0.49390515     0.35080
C1135       C  0.14139179  0.72476657  0.98819638    -0.26650
C1136       C  0.15732194  0.75018271  0.50016283    -0.14720
C1137       C  0.14057654  0.77520808  0.51210772     0.35910
C1138       C  0.10839109  0.77446244  0.51121079    -0.26100
C1139       C  0.09246149  0.74905004  0.49924890    -0.15340
C1140       C  0.10920311  0.72395258  0.98743508     0.36990
N1141       N  0.09359468  0.69795161  0.97424992    -0.89590
H1142       H  0.15413901  0.70560405  0.97885893     0.18110
H1143       H  0.09564076  0.79362450  0.52054286     0.18100
N1144       N  0.15618612  0.80100166  0.52568735    -0.88620
H1145       H  0.10928330  0.68134817  0.96705114     0.35470
H1146       H  0.08232038  0.70551776  0.95447155     0.40570
H1147       H  0.16735005  0.79312589  0.54541961     0.40190
H1148       H  0.14050369  0.81754730  0.53303398     0.35080
C1149       C  0.35782258  0.97310948  0.99478693    -0.26650
C1150       C  0.34231053  0.00079251  0.50010279    -0.14720
C1151       C  0.35968642  0.52786921  0.50536069     0.35910
C1152       C  0.39184246  0.52641234  0.50539126    -0.26100
C1153       C  0.40733767  0.99873663  0.50007034    -0.15340
C1154       C  0.38998537  0.97165923  0.99482367     0.36990
N1155       N  0.40484123  0.94278232  0.98917749    -0.89590
H1156       H  0.34478471  0.95228646  0.99067244     0.18110
H1157       H  0.40489706  0.54722196  0.50953103     0.18100
N1158       N  0.34486677  0.55678184  0.51091454    -0.88620
H1159       H  0.38881405  0.92585544  0.98329822     0.35470
H1160       H  0.41460708  0.93566569  0.00991888     0.40570
H1161       H  0.33500611  0.56378645  0.49017878     0.40190
H1162       H  0.36091432  0.57373839  0.51665137     0.35080
C1163       C  0.14162995  0.97309593  0.50414472    -0.26650
C1164       C  0.15731428  0.00105351  0.50021144    -0.14720
C1165       C  0.14015769  0.52828894  0.99616171     0.35910
C1166       C  0.10800421  0.52672897  0.99591640    -0.26100
C1167       C  0.09232314  0.99877233  0.49988062    -0.15340
C1168       C  0.10948544  0.97153137  0.50387744     0.36990
N1169       N  0.09446116  0.94234189  0.50792909    -0.89590
H1170       H  0.15451255  0.95212591  0.50728984     0.18110
H1171       H  0.09510527  0.54768503  0.99274254     0.18100
N1172       N  0.15519362  0.55747580  0.99213947    -0.88620
H1173       H  0.11038009  0.92516065  0.51285778     0.35470
H1174       H  0.08462301  0.93636187  0.48683613     0.40570
H1175       H  0.16516658  0.56336215  0.01319551     0.40190
H1176       H  0.13927049  0.57469222  0.98734942     0.35080
C1177       C  0.23411682  0.72698618  0.64185965    -0.26650
C1178       C  0.25031719  0.75018309  0.65726860    -0.14720
C1179       C  0.26627615  0.77265241  0.64016456     0.35910
C1180       C  0.26506675  0.77184604  0.60788778    -0.26100
C1181       C  0.24951453  0.74821862  0.59232947    -0.15340
C1182       C  0.23414279  0.72525946  0.60954966     0.36990
N1183       N  0.21798963  0.70075422  0.59433130    -0.89590
H1184       H  0.22204354  0.70968657  0.65516144     0.18110
H1185       H  0.27694765  0.78940693  0.59476846     0.18100
N1186       N  0.28294570  0.79666908  0.65556190    -0.88620
H1187       H  0.20606332  0.68729651  0.61031782     0.35470
H1188       H  0.23438177  0.68631405  0.58452756     0.40570
H1189       H  0.30179995  0.78667584  0.66638315     0.40190
H1190       H  0.29184360  0.81235882  0.63964751     0.35080
C1191       C  0.23254413  0.72963354  0.85779105    -0.26650
C1192       C  0.25020042  0.75166062  0.84214820    -0.14720
C1193       C  0.26724978  0.77355738  0.85925526     0.35910
C1194       C  0.26650972  0.77242001  0.89146047    -0.26100
C1195       C  0.24929852  0.75004105  0.90708962    -0.15340
C1196       C  0.23194681  0.72851844  0.89009706     0.36990
N1197       N  0.21343789  0.70594583  0.90566995    -0.89590
H1198       H  0.21936059  0.71303290  0.84468372     0.18110
H1199       H  0.27960055  0.78921464  0.90441408     0.18100
N1200       N  0.28444214  0.79801748  0.84507102    -0.88620
H1201       H  0.20227029  0.69175240  0.88980571     0.35470
H1202       H  0.19630995  0.71762657  0.91770446     0.40570
H1203       H  0.28117487  0.79901889  0.82135773     0.40190
H1204       H  0.30769210  0.79384930  0.84898315     0.35080
C1205       C  0.22235238  0.99694538  0.64152445    -0.26650
C1206       C  0.25028865  0.99994951  0.65740482    -0.14720
C1207       C  0.27777974  0.50329133  0.64021652     0.35910
C1208       C  0.27657084  0.50310498  0.60792569    -0.26100
C1209       C  0.24869733  0.00010369  0.59238400    -0.15340
C1210       C  0.22118076  0.99693242  0.60929614     0.36990
N1211       N  0.19170619  0.99404841  0.59473256    -0.89590
H1212       H  0.20109132  0.99448753  0.65421020     0.18110
H1213       H  0.29752892  0.50557398  0.59470921     0.18100
N1214       N  0.30682705  0.50709219  0.65537457    -0.88620
H1215       H  0.18283298  0.97241667  0.60035424     0.35470
H1216       H  0.19335446  0.99481138  0.57080459     0.40570
H1217       H  0.30665172  0.52853914  0.66618787     0.40190
H1218       H  0.32471446  0.50783634  0.63935939     0.35080
C1219       C  0.22557977  0.98812211  0.85915448    -0.26650
C1220       C  0.25093124  0.00016837  0.84311288    -0.14720
C1221       C  0.27589319  0.51253710  0.85997341     0.35910
C1222       C  0.27455117  0.51306269  0.89225711    -0.26100
C1223       C  0.24948858  0.00055939  0.90801311    -0.15340
C1224       C  0.22473223  0.98797480  0.89147695     0.36990
N1225       N  0.19873080  0.97545796  0.90760312    -0.89590
H1226       H  0.20645064  0.97854565  0.84644202     0.18110
H1227       H  0.29350462  0.52260384  0.90528198     0.18100
N1228       N  0.30226825  0.52503121  0.84445540    -0.88620
H1229       H  0.18245477  0.96707352  0.89205830     0.35470
H1230       H  0.18829295  0.99342960  0.91957394     0.40570
H1231       H  0.31439714  0.50660362  0.83511343     0.40190
H1232       H  0.31713944  0.53548310  0.86017261     0.35080
C1233       C  0.25127880  0.89162248  0.72342367    -0.26650
C1234       C  0.25002323  0.90730845  0.75154516    -0.14720
C1235       C  0.24776710  0.89044850  0.77934647     0.35910
C1236       C  0.24714837  0.85823334  0.77818561    -0.26100
C1237       C  0.24856200  0.84262617  0.75003391    -0.15340
C1238       C  0.25032762  0.85936968  0.72238952     0.36990
N1239       N  0.25128982  0.84351446  0.69343869    -0.89590
H1240       H  0.25274323  0.90463370  0.70220629     0.18110
H1241       H  0.24564486  0.84527683  0.79943509     0.18100
N1242       N  0.24581418  0.90505647  0.80897258    -0.88620
H1243       H  0.25285897  0.85915113  0.67524724     0.35470
H1244       H  0.23046083  0.83185340  0.69078013     0.40570
H1245       H  0.24624050  0.92894480  0.80720500     0.40190
H1246       H  0.26526526  0.89885298  0.82149429     0.35080
C1247       C  0.27480544  0.60811632  0.73754483    -0.26650
C1248       C  0.24951139  0.59234782  0.74999577    -0.14720
C1249       C  0.22497267  0.60950462  0.76244693     0.35910
C1250       C  0.22646425  0.64178387  0.76220933    -0.26100
C1251       C  0.25176206  0.65756494  0.74977870    -0.15340
C1252       C  0.27626253  0.64042198  0.73726323     0.36990
N1253       N  0.30214129  0.65567933  0.72347886    -0.89590
H1254       H  0.29357664  0.59513425  0.72778113     0.18110
H1255       H  0.20766952  0.65474363  0.77196014     0.18100
N1256       N  0.19898233  0.59429103  0.77609179    -0.88620
H1257       H  0.31668994  0.63977338  0.71301354     0.35470
H1258       H  0.31484814  0.66569331  0.74123504     0.40570
H1259       H  0.18624570  0.58447505  0.75824635     0.40190
H1260       H  0.18448874  0.61019567  0.78663791     0.35080
C1261       C  0.00738925  0.77653955  0.64200910    -0.26650
C1262       C  0.50073291  0.74914723  0.65748819    -0.14720
C1263       C  0.49375507  0.72234410  0.64050356     0.35910
C1264       C  0.49355327  0.72376772  0.60831476    -0.26100
C1265       C  0.49992787  0.75127112  0.59251891    -0.15340
C1266       C  0.00664646  0.77812533  0.60973193     0.36990
N1267       N  0.01294774  0.80684831  0.59462514    -0.89590
H1268       H  0.01254971  0.79699996  0.65527507     0.18110
H1269       H  0.48823094  0.70303252  0.59557532     0.18100
N1270       N  0.48693724  0.69334747  0.65493432    -0.88620
H1271       H  0.01952435  0.82357523  0.61059253     0.35470
H1272       H  0.99237257  0.81451348  0.58509323     0.40570
H1273       H  0.48797890  0.69470245  0.67886168     0.40190
H1274       H  0.50392174  0.67783490  0.64827863     0.35080
C1275       C  0.02688579  0.75103032  0.85829474    -0.26650
C1276       C  0.49871349  0.75031808  0.84255368    -0.14720
C1277       C  0.47115281  0.74934796  0.85986789     0.35910
C1278       C  0.47259600  0.74848279  0.89214804    -0.26100
C1279       C  0.50071681  0.74928942  0.90752482    -0.15340
C1280       C  0.02826574  0.75066416  0.89047563     0.36990
N1281       N  0.05793663  0.75201654  0.90484832    -0.89590
H1282       H  0.04821996  0.75197819  0.84554021     0.18110
H1283       H  0.45159808  0.74768686  0.90549293     0.18100
N1284       N  0.44179919  0.74931453  0.84487244    -0.88620
H1285       H  0.06974532  0.73207195  0.89877566     0.35470
H1286       H  0.05636608  0.75208872  0.92878792     0.40570
H1287       H  0.43895649  0.77092358  0.83481496     0.40190
H1288       H  0.42409698  0.74693015  0.86094336     0.35080
C1289       C  0.02732036  0.50057202  0.60753096    -0.26650
C1290       C  0.99920732  0.49933127  0.59214950    -0.14720
C1291       C  0.47165432  0.99833517  0.60920409     0.35910
C1292       C  0.47302736  0.99839739  0.64139217    -0.26100
C1293       C  0.00118827  0.49947921  0.65714783    -0.15340
C1294       C  0.02875069  0.50039611  0.63983161     0.36990
N1295       N  0.05808925  0.50114689  0.65484462    -0.89590
H1296       H  0.04831807  0.50135429  0.59418471     0.18110
H1297       H  0.45168623  0.99759925  0.65414294     0.18100
N1298       N  0.44197673  0.99704726  0.59482901    -0.88620
H1299       H  0.07576834  0.00348766  0.63874261     0.35470
H1300       H  0.06124202  0.97978186  0.66531968     0.40570
H1301       H  0.44353691  0.49679554  0.57088526     0.40190
H1302       H  0.43029699  0.51711955  0.60072942     0.35080
C1303       C  0.47465938  0.98907226  0.89224298    -0.26650
C1304       C  0.00080913  0.49944622  0.90779567    -0.14720
C1305       C  0.02646603  0.50994592  0.89082627     0.35910
C1306       C  0.02520567  0.50974445  0.85863857    -0.26100
C1307       C  0.99895156  0.49956000  0.84285349    -0.15340
C1308       C  0.47335594  0.98902589  0.85993993     0.36990
N1309       N  0.44630936  0.97795902  0.84458715    -0.89590
H1310       H  0.45509909  0.98106045  0.90544158     0.18110
H1311       H  0.04503988  0.51774834  0.84586944     0.18100
N1312       N  0.05443621  0.52002352  0.90523044    -0.88620
H1313       H  0.42942513  0.97180275  0.86055293     0.35470
H1314       H  0.45222860  0.95784459  0.83291104     0.40570
H1315       H  0.05361774  0.51793994  0.92911507     0.40190
H1316       H  0.05727156  0.54336649  0.90030254     0.35080
C1317       C  0.47348850  0.89193651  0.74352144    -0.26650
C1318       C  0.50104155  0.90753663  0.74979173    -0.14720
C1319       C  0.02770429  0.89032096  0.75613562     0.35910
C1320       C  0.02600789  0.85813800  0.75621189    -0.26100
C1321       C  0.49846813  0.84252771  0.74989122    -0.15340
C1322       C  0.47178851  0.85974676  0.74361531     0.36990
N1323       N  0.44312659  0.84473840  0.73696544    -0.89590
H1324       H  0.45296687  0.90492989  0.73856102     0.18110
H1325       H  0.04653491  0.84516116  0.76119038     0.18100
N1326       N  0.05633573  0.90532825  0.76292909    -0.88620
H1327       H  0.42650759  0.86074629  0.73060940     0.35470
H1328       H  0.43529927  0.83478031  0.75741584     0.40570
H1329       H  0.06431345  0.91520563  0.74249800     0.40190
H1330       H  0.07289805  0.88932833  0.76945165     0.35080
C1331       C  0.47343770  0.64185205  0.74456596    -0.26650
C1332       C  0.50119601  0.65754705  0.74951580    -0.14720
C1333       C  0.02818162  0.64042825  0.75466566     0.35910
C1334       C  0.02656452  0.60824331  0.75506422    -0.26100
C1335       C  0.49878946  0.59254212  0.75017849    -0.15340
C1336       C  0.47181144  0.60967437  0.74498361     0.36990
N1337       N  0.44287524  0.59459208  0.73984600    -0.89590
H1338       H  0.45267359  0.65475963  0.74047246     0.18110
H1339       H  0.04733808  0.59534120  0.75912182     0.18100
N1340       N  0.05709570  0.65553452  0.75985224    -0.88620
H1341       H  0.42593875  0.61052747  0.73418866     0.35470
H1342       H  0.43606433  0.58477013  0.76072161     0.40570
H1343       H  0.06392567  0.66537498  0.73899190     0.40190
H1344       H  0.07403616  0.63960627  0.76551667     0.35080
O1345       O  0.97448994  0.99966126  0.29342490    -0.72110
O1346       O  0.97583168  0.49926674  0.20605571    -0.72330
O1347       O  0.97582332  0.45605015  0.24987982    -0.72190
O1348       O  0.97445737  0.04300864  0.24948740    -0.72200
O1349       O  0.52408655  0.04403136  0.25064966    -0.72160
O1350       O  0.52547324  0.45703572  0.25032210    -0.72180
O1351       O  0.52544920  0.00072161  0.20679722    -0.72120
O1352       O  0.52418671  0.50040056  0.29408081    -0.72300
V1353       V  0.97610311  0.49953867  0.24974148     1.35240
V1354       V  0.52384081  0.50053068  0.25043771     1.35170
C1355       C  0.49912938  0.49986226  0.30871564     0.77130
C1356       C  0.50090311  0.49984293  0.19140417     0.77180
C1357       C  0.00088673  0.44160466  0.25005530     0.77050
C1358       C  0.99901422  0.05846339  0.25009076     0.77020
O1359       O  0.52401535  0.25037106  0.29361883    -0.72110
O1360       O  0.52519268  0.25096035  0.20624958    -0.72330
O1361       O  0.52376912  0.29407348  0.25028885    -0.72190
O1362       O  0.52544112  0.20712823  0.24968165    -0.72200
O1363       O  0.97578827  0.20595869  0.24986034    -0.72160
O1364       O  0.97414083  0.29294522  0.24874276    -0.72180
O1365       O  0.97539569  0.24867194  0.20573905    -0.72120
O1366       O  0.97437935  0.24995089  0.29296781    -0.72300
V1367       V  0.52365433  0.25060111  0.24993349     1.35240
V1368       V  0.97588614  0.24943579  0.24935093     1.35170
C1369       C  0.99896179  0.25025133  0.30830942     0.77130
C1370       C  0.00045978  0.24957134  0.19122807     0.77180
C1371       C  0.99867687  0.30845009  0.24957540     0.77050
C1372       C  0.00091266  0.19160926  0.24972796     0.77020
O1373       O  0.72552571  0.49881599  0.29428732    -0.72110
O1374       O  0.72519949  0.49974142  0.20667457    -0.72330
O1375       O  0.72528761  0.45569385  0.25021183    -0.72190
O1376       O  0.72498707  0.04287891  0.25099121    -0.72200
O1377       O  0.77463396  0.04347385  0.24923013    -0.72160
O1378       O  0.77510708  0.45602736  0.25119116    -0.72180
O1379       O  0.77483957  0.49884759  0.20669328    -0.72120
O1380       O  0.77518235  0.50073133  0.29373698    -0.72300
V1381       V  0.72619261  0.49928558  0.25050338     1.35240
V1382       V  0.77396955  0.49974074  0.25021816     1.35170
C1383       C  0.75054660  0.49994935  0.30897727     0.77130
C1384       C  0.75010923  0.49948267  0.19166257     0.77180
C1385       C  0.75019412  0.44108012  0.25097857     0.77050
C1386       C  0.74966550  0.05816090  0.25014088     0.77020
O1387       O  0.77519394  0.25054066  0.29334213    -0.72110
O1388       O  0.77509785  0.25192873  0.20601952    -0.72330
O1389       O  0.77425350  0.29467637  0.25038078    -0.72190
O1390       O  0.77596123  0.20736099  0.24885848    -0.72200
O1391       O  0.72630708  0.20611518  0.25058098    -0.72160
O1392       O  0.72444343  0.29344333  0.24911462    -0.72180
O1393       O  0.72538439  0.24883061  0.20604521    -0.72120
O1394       O  0.72538225  0.25045700  0.29345271    -0.72300
V1395       V  0.77415753  0.25104397  0.24966178     1.35240
V1396       V  0.72633431  0.24975761  0.24977452     1.35170
C1397       C  0.75030199  0.25094818  0.30823945     0.77130
C1398       C  0.75026419  0.25046202  0.19117926     0.77180
C1399       C  0.74906412  0.30884649  0.24985136     0.77050
C1400       C  0.75143789  0.19175696  0.24964134     0.77020
O1401       O  0.49967729  0.47431624  0.45629099    -0.72110
O1402       O  0.99958600  0.47424031  0.04367517    -0.72330
O1403       O  0.95636562  0.47420968  0.49993484    -0.72190
O1404       O  0.54305504  0.47417034  0.00001582    -0.72200
O1405       O  0.54355525  0.02392656  0.50030280    -0.72160
O1406       O  0.95637840  0.02396767  0.99974045    -0.72180
O1407       O  0.49959383  0.02418585  0.04364898    -0.72120
O1408       O  0.00057648  0.02425022  0.45640083    -0.72300
V1409       V  0.49969482  0.47522187  0.49998254     1.35240
V1410       V  0.49999207  0.02314095  0.00002274     1.35170
C1411       C  0.50038535  0.99932535  0.44156647     0.77130
C1412       C  0.49945961  0.99923580  0.05842126     0.77180
C1413       C  0.94142754  0.99895285  0.99984386     0.77050
C1414       C  0.55824580  0.99891273  0.00011202     0.77020
O1415       O  0.99946592  0.22467977  0.45626195    -0.72110
O1416       O  0.99980169  0.22584604  0.04365905    -0.72330
O1417       O  0.95616713  0.22585166  0.50026766    -0.72190
O1418       O  0.54314758  0.22462254  0.99960363    -0.72200
O1419       O  0.54405866  0.27444999  0.49975116    -0.72160
O1420       O  0.95701789  0.27557534  0.99895219    -0.72180
O1421       O  0.50018241  0.27559521  0.04294704    -0.72120
O1422       O  0.00106341  0.27460739  0.45573751    -0.72300
V1423       V  0.99966523  0.22620494  0.49994223     1.35240
V1424       V  0.00054443  0.27408623  0.99935708     1.35170
C1425       C  0.00042868  0.24949901  0.44124393     0.77130
C1426       C  0.99997153  0.25096699  0.05830443     0.77180
C1427       C  0.94161620  0.25091029  0.99971872     0.77050
C1428       C  0.55848805  0.24932393  0.99949122     0.77020
O1429       O  0.75160661  0.02545117  0.45661181    -0.72110
O1430       O  0.74841257  0.02529655  0.04394645    -0.72330
O1431       O  0.79328103  0.02533353  0.50176474    -0.72190
O1432       O  0.70662937  0.02557234  0.99876864    -0.72200
O1433       O  0.70602669  0.47588733  0.50139672    -0.72160
O1434       O  0.79317016  0.47566424  0.99891776    -0.72180
O1435       O  0.75056044  0.47540802  0.04380060    -0.72120
O1436       O  0.74811548  0.47563032  0.45656114    -0.72300
V1437       V  0.74996642  0.02444917  0.50027336     1.35240
V1438       V  0.74954001  0.47656442  0.00017285     1.35170
C1439       C  0.74970818  0.50055427  0.44179166     0.77130
C1440       C  0.74921241  0.50028356  0.05864179     0.77180
C1441       C  0.80818951  0.50060876  0.00030478     0.77050
C1442       C  0.69138607  0.50089017  0.00009199     0.77020
O1443       O  0.75017946  0.27449714  0.45620339    -0.72110
O1444       O  0.75037464  0.27353116  0.04361217    -0.72330
O1445       O  0.79364506  0.27342438  0.49968729    -0.72190
O1446       O  0.70666120  0.27463678  0.00019094    -0.72200
O1447       O  0.70571614  0.22482178  0.49922126    -0.72160
O1448       O  0.79275064  0.22368567  0.99955454    -0.72180
O1449       O  0.74885052  0.22372971  0.04302927    -0.72120
O1450       O  0.74922252  0.22462823  0.45573288    -0.72300
V1451       V  0.75016814  0.27306314  0.49990513     1.35240
V1452       V  0.74920442  0.22518646  0.99939173     1.35170
C1453       C  0.74954934  0.24969382  0.44107960     0.77130
C1454       C  0.74945037  0.24843663  0.05825423     0.77180
C1455       C  0.80817404  0.24835630  0.99955562     0.77050
C1456       C  0.69130145  0.24993713  0.99990970     0.77020
C1457       C  0.89182471  0.22268934  0.00163702    -0.26650
C1458       C  0.90745258  0.25095806  0.99997098    -0.14720
C1459       C  0.89014272  0.27831858  0.49825422     0.35910
C1460       C  0.85796461  0.27660039  0.49782690    -0.26100
C1461       C  0.84233797  0.24832153  0.99941358    -0.15340
C1462       C  0.85964783  0.22097329  0.00124999     0.36990
N1463       N  0.84473950  0.19149621  0.00286742    -0.89590
H1464       H  0.90478237  0.20157911  0.00301652     0.18110
H1465       H  0.84500475  0.29771116  0.49646161     0.18100
N1466       N  0.90505165  0.30780932  0.49687034    -0.88620
H1467       H  0.86075554  0.17400175  0.50606878     0.35470
H1468       H  0.83462537  0.18738358  0.48146363     0.40570
H1469       H  0.91526084  0.31170591  0.01826975     0.40190
H1470       H  0.88902952  0.32534009  0.99390516     0.35080
C1471       C  0.64139179  0.22476657  0.48819642    -0.26650
C1472       C  0.65732194  0.25018272  0.00016283    -0.14720
C1473       C  0.64057654  0.27520810  0.01210771     0.35910
C1474       C  0.60839109  0.27446245  0.01121077    -0.26100
C1475       C  0.59246149  0.24905006  0.99924889    -0.15340
C1476       C  0.60920312  0.22395258  0.48743512     0.36990
N1477       N  0.59359469  0.19795162  0.47424996    -0.89590
H1478       H  0.65413902  0.20560406  0.47885897     0.18110
H1479       H  0.59564076  0.29362451  0.02054284     0.18100
N1480       N  0.65618612  0.30100168  0.02568733    -0.88620
H1481       H  0.60928331  0.18134818  0.46705119     0.35470
H1482       H  0.58232039  0.20551776  0.45447159     0.40570
H1483       H  0.66735004  0.29312591  0.04541960     0.40190
H1484       H  0.64050369  0.31754732  0.03303395     0.35080
C1485       C  0.85782257  0.47310948  0.49478693    -0.26650
C1486       C  0.84231052  0.50079253  0.00010279    -0.14720
C1487       C  0.85968642  0.02786921  0.00536068     0.35910
C1488       C  0.89184246  0.02641235  0.00539125    -0.26100
C1489       C  0.90733767  0.49873665  0.00007034    -0.15340
C1490       C  0.88998537  0.47165922  0.49482368     0.36990
N1491       N  0.90484122  0.44278231  0.48917750    -0.89590
H1492       H  0.84478470  0.45228645  0.49067245     0.18110
H1493       H  0.90489706  0.04722197  0.00953101     0.18100
N1494       N  0.84486677  0.05678184  0.01091453    -0.88620
H1495       H  0.88881404  0.42585543  0.48329823     0.35470
H1496       H  0.91460707  0.43566568  0.50991890     0.40570
H1497       H  0.83500610  0.06378645  0.99017877     0.40190
H1498       H  0.86091432  0.07373840  0.01665136     0.35080
C1499       C  0.64162994  0.47309592  0.00414467    -0.26650
C1500       C  0.65731428  0.50105351  0.00021141    -0.14720
C1501       C  0.64015769  0.02828894  0.49616172     0.35910
C1502       C  0.60800421  0.02672897  0.49591641    -0.26100
C1503       C  0.59232314  0.49877233  0.99988059    -0.15340
C1504       C  0.60948543  0.47153136  0.00387738     0.36990
N1505       N  0.59446115  0.44234188  0.00792901    -0.89590
H1506       H  0.65451255  0.45212590  0.00728977     0.18110
H1507       H  0.59510527  0.04768502  0.49274253     0.18100
N1508       N  0.65519362  0.05747580  0.49213946    -0.88620
H1509       H  0.61038009  0.42516064  0.01285766     0.35470
H1510       H  0.58462300  0.43636189  0.98683604     0.40570
H1511       H  0.66516658  0.06336216  0.51319550     0.40190
H1512       H  0.63927049  0.07469222  0.48734940     0.35080
C1513       C  0.73411682  0.22698618  0.14185965    -0.26650
C1514       C  0.75031721  0.25018308  0.15726861    -0.14720
C1515       C  0.76627619  0.27265240  0.14016457     0.35910
C1516       C  0.76506679  0.27184603  0.10788779    -0.26100
C1517       C  0.74951455  0.24821862  0.09232948    -0.15340
C1518       C  0.73414279  0.22525946  0.10954966     0.36990
N1519       N  0.71798963  0.20075424  0.09433129    -0.89590
H1520       H  0.72204354  0.20968659  0.15516143     0.18110
H1521       H  0.77694770  0.28940691  0.09476847     0.18100
N1522       N  0.78294575  0.29666905  0.15556191    -0.88620
H1523       H  0.70606330  0.18729654  0.11031781     0.35470
H1524       H  0.73438176  0.18631406  0.08452756     0.40570
H1525       H  0.80180000  0.28667579  0.16638316     0.40190
H1526       H  0.79184367  0.31235878  0.13964752     0.35080
C1527       C  0.73254412  0.22963353  0.35779106    -0.26650
C1528       C  0.75020041  0.25166061  0.34214821    -0.14720
C1529       C  0.76724977  0.27355738  0.35925526     0.35910
C1530       C  0.76650970  0.27242002  0.39146048    -0.26100
C1531       C  0.74929851  0.25004106  0.40708963    -0.15340
C1532       C  0.73194680  0.22851844  0.39009708     0.36990
N1533       N  0.71343787  0.20594584  0.40566997    -0.89590
H1534       H  0.71936058  0.21303289  0.34468373     0.18110
H1535       H  0.77960053  0.28921465  0.40441408     0.18100
N1536       N  0.78444212  0.29801748  0.34507102    -0.88620
H1537       H  0.70227028  0.19175241  0.38980573     0.35470
H1538       H  0.69630994  0.21762658  0.41770448     0.40570
H1539       H  0.78117485  0.29901889  0.32135773     0.40190
H1540       H  0.80769209  0.29384930  0.34898315     0.35080
C1541       C  0.72235236  0.49694538  0.14152444    -0.26650
C1542       C  0.75028863  0.49994949  0.15740482    -0.14720
C1543       C  0.77777975  0.00329130  0.14021652     0.35910
C1544       C  0.77657085  0.00310495  0.10792569    -0.26100
C1545       C  0.74869731  0.50010368  0.09238400    -0.15340
C1546       C  0.72118074  0.49693242  0.10929613     0.36990
N1547       N  0.69170617  0.49404842  0.09473255    -0.89590
H1548       H  0.70109130  0.49448755  0.15421019     0.18110
H1549       H  0.79752893  0.00557392  0.09470922     0.18100
N1550       N  0.80682705  0.00709213  0.15537457    -0.88620
H1551       H  0.68283296  0.47241668  0.10035424     0.35470
H1552       H  0.69335444  0.49481139  0.07080459     0.40570
H1553       H  0.80665174  0.02853909  0.16618787     0.40190
H1554       H  0.82471446  0.00783627  0.13935940     0.35080
C1555       C  0.72557975  0.48812211  0.35915448    -0.26650
C1556       C  0.75093122  0.50016836  0.34311288    -0.14720
C1557       C  0.77589317  0.01253710  0.35997341     0.35910
C1558       C  0.77455116  0.01306268  0.39225711    -0.26100
C1559       C  0.74948856  0.50055939  0.40801310    -0.15340
C1560       C  0.72473221  0.48797481  0.39147694     0.36990
N1561       N  0.69873077  0.47545798  0.40760312    -0.89590
H1562       H  0.70645062  0.47854565  0.34644202     0.18110
H1563       H  0.79350461  0.02260385  0.40528198     0.18100
N1564       N  0.80226822  0.02503123  0.34445540    -0.88620
H1565       H  0.68245475  0.46707355  0.39205830     0.35470
H1566       H  0.68829293  0.49342963  0.41957393     0.40570
H1567       H  0.81439712  0.00660364  0.33511343     0.40190
H1568       H  0.81713942  0.03548312  0.36017261     0.35080
C1569       C  0.75127880  0.39162246  0.22342366    -0.26650
C1570       C  0.75002321  0.40730843  0.25154515    -0.14720
C1571       C  0.74776707  0.39044849  0.27934646     0.35910
C1572       C  0.74714834  0.35823333  0.27818561    -0.26100
C1573       C  0.74856199  0.34262616  0.25003391    -0.15340
C1574       C  0.75032763  0.35936966  0.22238952     0.36990
N1575       N  0.75128985  0.34351444  0.19343870    -0.89590
H1576       H  0.75274325  0.40463368  0.20220629     0.18110
H1577       H  0.74564481  0.34527682  0.29943509     0.18100
N1578       N  0.74581413  0.40505646  0.30897257    -0.88620
H1579       H  0.75285901  0.35915111  0.17524725     0.35470
H1580       H  0.73046086  0.33185337  0.19078012     0.40570
H1581       H  0.74624045  0.42894479  0.30720499     0.40190
H1582       H  0.76526521  0.39885297  0.32149430     0.35080
C1583       C  0.77480543  0.10811630  0.23754482    -0.26650
C1584       C  0.74951139  0.09234781  0.24999578    -0.14720
C1585       C  0.72497268  0.10950461  0.26244695     0.35910
C1586       C  0.72646426  0.14178385  0.26220935    -0.26100
C1587       C  0.75176207  0.15756493  0.24977870    -0.15340
C1588       C  0.77626252  0.14042197  0.23726323     0.36990
N1589       N  0.80214128  0.15567932  0.22347884    -0.89590
H1590       H  0.79357663  0.09513424  0.22778111     0.18110
H1591       H  0.70766953  0.15474362  0.27196017     0.18100
N1592       N  0.69898235  0.09429102  0.27609182    -0.88620
H1593       H  0.81668993  0.13977336  0.21301351     0.35470
H1594       H  0.81484814  0.16569330  0.24123501     0.40570
H1595       H  0.68624571  0.08447504  0.25824640     0.40190
H1596       H  0.68448876  0.11019566  0.28663796     0.35080
C1597       C  0.50738923  0.27653956  0.14200910    -0.26650
C1598       C  0.00073292  0.24914724  0.15748818    -0.14720
C1599       C  0.99375507  0.22234412  0.14050356     0.35910
C1600       C  0.99355327  0.22376774  0.10831476    -0.26100
C1601       C  0.99992788  0.25127113  0.09251891    -0.15340
C1602       C  0.50664645  0.27812534  0.10973192     0.36990
N1603       N  0.51294771  0.30684833  0.09462514    -0.89590
H1604       H  0.51254967  0.29699997  0.15527506     0.18110
H1605       H  0.98823093  0.20303253  0.09557531     0.18100
N1606       N  0.98693724  0.19334748  0.15493431    -0.88620
H1607       H  0.51952432  0.32357525  0.11059253     0.35470
H1608       H  0.49237255  0.31451349  0.08509321     0.40570
H1609       H  0.98797890  0.19470246  0.17886167     0.40190
H1610       H  0.00392173  0.17783491  0.14827862     0.35080
C1611       C  0.52688581  0.25103031  0.35829474    -0.26650
C1612       C  0.99871348  0.25031807  0.34255368    -0.14720
C1613       C  0.97115280  0.24934796  0.35986789     0.35910
C1614       C  0.97259600  0.24848280  0.39214804    -0.26100
C1615       C  0.00071681  0.24928943  0.40752482    -0.15340
C1616       C  0.52826576  0.25066416  0.39047563     0.36990
N1617       N  0.55793666  0.25201653  0.40484832    -0.89590
H1618       H  0.54821998  0.25197816  0.34554021     0.18110
H1619       H  0.95159808  0.24768688  0.40549294     0.18100
N1620       N  0.94179918  0.24931453  0.34487245    -0.88620
H1621       H  0.56974534  0.23207193  0.39877566     0.35470
H1622       H  0.55636610  0.25208872  0.42878792     0.40570
H1623       H  0.93895649  0.27092357  0.33481496     0.40190
H1624       H  0.92409697  0.24693016  0.36094337     0.35080
C1625       C  0.52732037  0.00057202  0.10753096    -0.26650
C1626       C  0.49920733  0.99933127  0.09214949    -0.14720
C1627       C  0.97165431  0.49833517  0.10920409     0.35910
C1628       C  0.97302735  0.49839739  0.14139216    -0.26100
C1629       C  0.50118828  0.99947920  0.15714783    -0.15340
C1630       C  0.52875070  0.00039611  0.13983161     0.36990
N1631       N  0.55808927  0.00114689  0.15484462    -0.89590
H1632       H  0.54831808  0.00135429  0.09418471     0.18110
H1633       H  0.95168622  0.49759924  0.15414294     0.18100
N1634       N  0.94197673  0.49704725  0.09482900    -0.88620
H1635       H  0.57576834  0.50348772  0.13874261     0.35470
H1636       H  0.56124203  0.47978190  0.16531968     0.40570
H1637       H  0.94353691  0.99679556  0.07088526     0.40190
H1638       H  0.93029699  0.01711957  0.10072942     0.35080
C1639       C  0.97465937  0.48907226  0.39224299    -0.26650
C1640       C  0.50080914  0.99944620  0.40779567    -0.14720
C1641       C  0.52646605  0.00994589  0.39082628     0.35910
C1642       C  0.52520568  0.00974443  0.35863857    -0.26100
C1643       C  0.49895157  0.99956000  0.34285349    -0.15340
C1644       C  0.97335593  0.48902589  0.35993993     0.36990
N1645       N  0.94630934  0.47795903  0.34458716    -0.89590
H1646       H  0.95509908  0.48106045  0.40544158     0.18110
H1647       H  0.54503990  0.01774831  0.34586945     0.18100
N1648       N  0.55443623  0.02002348  0.40523044    -0.88620
H1649       H  0.92942510  0.47180277  0.36055294     0.35470
H1650       H  0.95222856  0.45784460  0.33291104     0.40570
H1651       H  0.55361776  0.01793988  0.42911508     0.40190
H1652       H  0.55727160  0.04336645  0.40030255     0.35080
C1653       C  0.97348848  0.39193651  0.24352145    -0.26650
C1654       C  0.00104153  0.40753663  0.24979175    -0.14720
C1655       C  0.52770427  0.39032095  0.25613565     0.35910
C1656       C  0.52600787  0.35813799  0.25621192    -0.26100
C1657       C  0.99846811  0.34252770  0.24989124    -0.15340
C1658       C  0.97178849  0.35974676  0.24361533     0.36990
N1659       N  0.94312658  0.34473839  0.23696545    -0.89590
H1660       H  0.95296686  0.40492988  0.23856103     0.18110
H1661       H  0.54653489  0.34516116  0.26119042     0.18100
N1662       N  0.55633571  0.40532825  0.26292914    -0.88620
H1663       H  0.92650757  0.36074628  0.23060942     0.35470
H1664       H  0.93529925  0.33478030  0.25741585     0.40570
H1665       H  0.56431344  0.41520562  0.24249804     0.40190
H1666       H  0.57289802  0.38932833  0.26945171     0.35080
C1667       C  0.97343769  0.14185204  0.24456594    -0.26650
C1668       C  0.00119600  0.15754704  0.24951579    -0.14720
C1669       C  0.52818163  0.14042824  0.25466565     0.35910
C1670       C  0.52656453  0.10824330  0.25506421    -0.26100
C1671       C  0.99878945  0.09254212  0.25017849    -0.15340
C1672       C  0.97181144  0.10967436  0.24498359     0.36990
N1673       N  0.94287524  0.09459207  0.23984598    -0.89590
H1674       H  0.95267359  0.15475962  0.24047242     0.18110
H1675       H  0.54733809  0.09534120  0.25912182     0.18100
N1676       N  0.55709571  0.15553452  0.25985223    -0.88620
H1677       H  0.92593875  0.11052747  0.23418862     0.35470
H1678       H  0.93606433  0.08477012  0.26072158     0.40570
H1679       H  0.56392569  0.16537497  0.23899190     0.40190
H1680       H  0.57403617  0.13960627  0.26551668     0.35080
O1681       O  0.97448994  0.99966127  0.79342490    -0.72110
O1682       O  0.97583168  0.49926673  0.70605572    -0.72330
O1683       O  0.97582332  0.45605015  0.74987982    -0.72190
O1684       O  0.97445737  0.04300865  0.74948741    -0.72200
O1685       O  0.52408654  0.04403138  0.75064966    -0.72160
O1686       O  0.52547325  0.45703572  0.75032211    -0.72180
O1687       O  0.52544920  0.00072163  0.70679722    -0.72120
O1688       O  0.52418672  0.50040057  0.79408081    -0.72300
V1689       V  0.97610312  0.49953867  0.74974148     1.35240
V1690       V  0.52384082  0.50053068  0.75043772     1.35170
C1691       C  0.49912939  0.49986227  0.80871564     0.77130
C1692       C  0.50090312  0.49984292  0.69140417     0.77180
C1693       C  0.00088674  0.44160466  0.75005530     0.77050
C1694       C  0.99901422  0.05846341  0.75009076     0.77020
O1695       O  0.52401534  0.25037106  0.79361883    -0.72110
O1696       O  0.52519268  0.25096036  0.70624958    -0.72330
O1697       O  0.52376911  0.29407348  0.75028885    -0.72190
O1698       O  0.52544111  0.20712823  0.74968166    -0.72200
O1699       O  0.97578826  0.20595869  0.74986035    -0.72160
O1700       O  0.97414082  0.29294523  0.74874275    -0.72180
O1701       O  0.97539568  0.24867194  0.70573905    -0.72120
O1702       O  0.97437935  0.24995090  0.79296781    -0.72300
V1703       V  0.52365432  0.25060111  0.74993349     1.35240
V1704       V  0.97588613  0.24943580  0.74935093     1.35170
C1705       C  0.99896179  0.25025134  0.80830942     0.77130
C1706       C  0.00045977  0.24957134  0.69122807     0.77180
C1707       C  0.99867687  0.30845010  0.74957539     0.77050
C1708       C  0.00091265  0.19160926  0.74972797     0.77020
O1709       O  0.72552571  0.49881600  0.79428731    -0.72110
O1710       O  0.72519949  0.49974142  0.70667457    -0.72330
O1711       O  0.72528761  0.45569386  0.75021184    -0.72190
O1712       O  0.72498705  0.04287892  0.75099121    -0.72200
O1713       O  0.77463395  0.04347386  0.74923013    -0.72160
O1714       O  0.77510708  0.45602737  0.75119116    -0.72180
O1715       O  0.77483956  0.49884760  0.70669328    -0.72120
O1716       O  0.77518234  0.50073134  0.79373698    -0.72300
V1717       V  0.72619260  0.49928559  0.75050338     1.35240
V1718       V  0.77396955  0.49974075  0.75021816     1.35170
C1719       C  0.75054660  0.49994937  0.80897727     0.77130
C1720       C  0.75010923  0.49948268  0.69166257     0.77180
C1721       C  0.75019412  0.44108013  0.75097857     0.77050
C1722       C  0.74966548  0.05816091  0.75014088     0.77020
O1723       O  0.77519393  0.25054067  0.79334213    -0.72110
O1724       O  0.77509785  0.25192873  0.70601952    -0.72330
O1725       O  0.77425349  0.29467638  0.75038078    -0.72190
O1726       O  0.77596122  0.20736100  0.74885848    -0.72200
O1727       O  0.72630708  0.20611519  0.75058098    -0.72160
O1728       O  0.72444343  0.29344334  0.74911462    -0.72180
O1729       O  0.72538439  0.24883062  0.70604521    -0.72120
O1730       O  0.72538225  0.25045701  0.79345271    -0.72300
V1731       V  0.77415753  0.25104397  0.74966179     1.35240
V1732       V  0.72633430  0.24975762  0.74977452     1.35170
C1733       C  0.75030199  0.25094819  0.80823945     0.77130
C1734       C  0.75026419  0.25046202  0.69117926     0.77180
C1735       C  0.74906412  0.30884650  0.74985136     0.77050
C1736       C  0.75143788  0.19175697  0.74964135     0.77020
O1737       O  0.49967729  0.47431625  0.95629098    -0.72110
O1738       O  0.99958600  0.47424032  0.54367518    -0.72330
O1739       O  0.95636561  0.47420969  0.99993483    -0.72190
O1740       O  0.54305505  0.47417034  0.50001584    -0.72200
O1741       O  0.54355526  0.02392657  0.00030278    -0.72160
O1742       O  0.95637839  0.02396765  0.49974044    -0.72180
O1743       O  0.49959381  0.02418583  0.54364899    -0.72120
O1744       O  0.00057647  0.02425023  0.95640083    -0.72300
V1745       V  0.49969482  0.47522188  0.99998252     1.35240
V1746       V  0.49999206  0.02314094  0.50002275     1.35170
C1747       C  0.50038535  0.99932536  0.94156647     0.77130
C1748       C  0.49945961  0.99923578  0.55842126     0.77180
C1749       C  0.94142754  0.99895283  0.49984386     0.77050
C1750       C  0.55824580  0.99891272  0.50011203     0.77020
O1751       O  0.99946592  0.22467976  0.95626194    -0.72110
O1752       O  0.99980168  0.22584603  0.54365905    -0.72330
O1753       O  0.95616713  0.22585165  0.00026766    -0.72190
O1754       O  0.54314758  0.22462254  0.49960365    -0.72200
O1755       O  0.54405866  0.27444999  0.99975115    -0.72160
O1756       O  0.95701789  0.27557534  0.49895220    -0.72180
O1757       O  0.50018241  0.27559521  0.54294705    -0.72120
O1758       O  0.00106341  0.27460738  0.95573750    -0.72300
V1759       V  0.99966523  0.22620493  0.99994223     1.35240
V1760       V  0.00054443  0.27408623  0.49935709     1.35170
C1761       C  0.00042867  0.24949900  0.94124393     0.77130
C1762       C  0.99997153  0.25096699  0.55830443     0.77180
C1763       C  0.94161620  0.25091029  0.49971873     0.77050
C1764       C  0.55848805  0.24932393  0.49949124     0.77020
O1765       O  0.75160661  0.02545116  0.95661181    -0.72110
O1766       O  0.74841258  0.02529656  0.54394646    -0.72330
O1767       O  0.79328103  0.02533353  0.00176474    -0.72190
O1768       O  0.70662937  0.02557235  0.49876865    -0.72200
O1769       O  0.70602669  0.47588733  0.00139672    -0.72160
O1770       O  0.79317016  0.47566423  0.49891776    -0.72180
O1771       O  0.75056044  0.47540802  0.54380060    -0.72120
O1772       O  0.74811548  0.47563034  0.95656114    -0.72300
V1773       V  0.74996642  0.02444916  0.00027336     1.35240
V1774       V  0.74954001  0.47656441  0.50017285     1.35170
C1775       C  0.74970819  0.50055428  0.94179166     0.77130
C1776       C  0.74921242  0.50028356  0.55864179     0.77180
C1777       C  0.80818952  0.50060875  0.50030477     0.77050
C1778       C  0.69138607  0.50089017  0.50009200     0.77020
O1779       O  0.75017947  0.27449714  0.95620339    -0.72110
O1780       O  0.75037464  0.27353116  0.54361218    -0.72330
O1781       O  0.79364506  0.27342438  0.99968729    -0.72190
O1782       O  0.70666120  0.27463678  0.50019095    -0.72200
O1783       O  0.70571614  0.22482179  0.99922125    -0.72160
O1784       O  0.79275064  0.22368567  0.49955454    -0.72180
O1785       O  0.74885053  0.22372971  0.54302927    -0.72120
O1786       O  0.74922252  0.22462823  0.95573288    -0.72300
V1787       V  0.75016814  0.27306314  0.99990512     1.35240
V1788       V  0.74920442  0.22518646  0.49939173     1.35170
C1789       C  0.74954934  0.24969382  0.94107959     0.77130
C1790       C  0.74945038  0.24843663  0.55825423     0.77180
C1791       C  0.80817404  0.24835630  0.49955563     0.77050
C1792       C  0.69130144  0.24993712  0.49990972     0.77020
C1793       C  0.89182471  0.22268934  0.50163705    -0.26650
C1794       C  0.90745258  0.25095807  0.49997099    -0.14720
C1795       C  0.89014272  0.27831857  0.99825422     0.35910
C1796       C  0.85796461  0.27660039  0.99782690    -0.26100
C1797       C  0.84233797  0.24832154  0.49941359    -0.15340
C1798       C  0.85964783  0.22097329  0.50125002     0.36990
N1799       N  0.84473950  0.19149622  0.50286747    -0.89590
H1800       H  0.90478237  0.20157912  0.50301656     0.18110
H1801       H  0.84500476  0.29771116  0.99646162     0.18100
N1802       N  0.90505166  0.30780931  0.99687035    -0.88620
H1803       H  0.86075554  0.17400174  0.00606872     0.35470
H1804       H  0.83462537  0.18738359  0.98146358     0.40570
H1805       H  0.91526084  0.31170591  0.51826974     0.40190
H1806       H  0.88902952  0.32534009  0.49390515     0.35080
C1807       C  0.64139179  0.22476658  0.98819640    -0.26650
C1808       C  0.65732194  0.25018272  0.50016285    -0.14720
C1809       C  0.64057654  0.27520809  0.51210775     0.35910
C1810       C  0.60839109  0.27446244  0.51121080    -0.26100
C1811       C  0.59246149  0.24905005  0.49924891    -0.15340
C1812       C  0.60920312  0.22395259  0.98743510     0.36990
N1813       N  0.59359469  0.19795162  0.97424995    -0.89590
H1814       H  0.65413902  0.20560406  0.97885895     0.18110
H1815       H  0.59564076  0.29362450  0.52054288     0.18100
N1816       N  0.65618612  0.30100167  0.52568737    -0.88620
H1817       H  0.60928331  0.18134818  0.96705117     0.35470
H1818       H  0.58232039  0.20551776  0.95447157     0.40570
H1819       H  0.66735004  0.29312589  0.54541964     0.40190
H1820       H  0.64050369  0.31754730  0.53303400     0.35080
C1821       C  0.85782257  0.47310949  0.99478693    -0.26650
C1822       C  0.84231052  0.50079251  0.50010280    -0.14720
C1823       C  0.85968642  0.02786920  0.50536068     0.35910
C1824       C  0.89184246  0.02641234  0.50539125    -0.26100
C1825       C  0.90733767  0.49873663  0.50007035    -0.15340
C1826       C  0.88998536  0.47165923  0.99482367     0.36990
N1827       N  0.90484122  0.44278232  0.98917750    -0.89590
H1828       H  0.84478470  0.45228647  0.99067245     0.18110
H1829       H  0.90489707  0.04722195  0.50953101     0.18100
N1830       N  0.84486678  0.05678183  0.51091453    -0.88620
H1831       H  0.88881404  0.42585544  0.98329823     0.35470
H1832       H  0.91460707  0.43566569  0.00991889     0.40570
H1833       H  0.83500611  0.06378644  0.49017877     0.40190
H1834       H  0.86091432  0.07373839  0.51665136     0.35080
C1835       C  0.64162994  0.47309592  0.50414471    -0.26650
C1836       C  0.65731428  0.50105350  0.50021143    -0.14720
C1837       C  0.64015770  0.02828893  0.99616171     0.35910
C1838       C  0.60800422  0.02672897  0.99591640    -0.26100
C1839       C  0.59232314  0.49877233  0.49988062    -0.15340
C1840       C  0.60948543  0.47153137  0.50387743     0.36990
N1841       N  0.59446115  0.44234189  0.50792909    -0.89590
H1842       H  0.65451255  0.45212591  0.50728983     0.18110
H1843       H  0.59510528  0.04768502  0.99274254     0.18100
N1844       N  0.65519364  0.05747579  0.99213947    -0.88620
H1845       H  0.61038009  0.42516065  0.51285777     0.35470
H1846       H  0.58462300  0.43636187  0.48683613     0.40570
H1847       H  0.66516659  0.06336214  0.01319551     0.40190
H1848       H  0.63927050  0.07469221  0.98734942     0.35080
C1849       C  0.73411683  0.22698618  0.64185966    -0.26650
C1850       C  0.75031721  0.25018308  0.65726861    -0.14720
C1851       C  0.76627619  0.27265240  0.64016457     0.35910
C1852       C  0.76506679  0.27184603  0.60788779    -0.26100
C1853       C  0.74951456  0.24821862  0.59232948    -0.15340
C1854       C  0.73414281  0.22525946  0.60954967     0.36990
N1855       N  0.71798965  0.20075423  0.59433130    -0.89590
H1856       H  0.72204355  0.20968658  0.65516144     0.18110
H1857       H  0.77694769  0.28940691  0.59476847     0.18100
N1858       N  0.78294574  0.29666906  0.65556191    -0.88620
H1859       H  0.70606333  0.18729652  0.61031782     0.35470
H1860       H  0.73438179  0.18631405  0.58452757     0.40570
H1861       H  0.80179999  0.28667581  0.66638317     0.40190
H1862       H  0.79184366  0.31235880  0.63964752     0.35080
C1863       C  0.73254411  0.22963354  0.85779106    -0.26650
C1864       C  0.75020040  0.25166062  0.84214821    -0.14720
C1865       C  0.76724977  0.27355739  0.85925526     0.35910
C1866       C  0.76650970  0.27242002  0.89146048    -0.26100
C1867       C  0.74929851  0.25004106  0.90708963    -0.15340
C1868       C  0.73194680  0.22851844  0.89009708     0.36990
N1869       N  0.71343788  0.20594584  0.90566997    -0.89590
H1870       H  0.71936057  0.21303290  0.84468373     0.18110
H1871       H  0.77960054  0.28921465  0.90441408     0.18100
N1872       N  0.78444212  0.29801748  0.84507102    -0.88620
H1873       H  0.70227028  0.19175241  0.88980573     0.35470
H1874       H  0.69630995  0.21762658  0.91770449     0.40570
H1875       H  0.78117484  0.29901890  0.82135773     0.40190
H1876       H  0.80769208  0.29384930  0.84898314     0.35080
C1877       C  0.72235237  0.49694536  0.64152444    -0.26650
C1878       C  0.75028863  0.49994950  0.65740482    -0.14720
C1879       C  0.77777973  0.00329134  0.64021652     0.35910
C1880       C  0.77657083  0.00310498  0.60792570    -0.26100
C1881       C  0.74869732  0.50010368  0.59238400    -0.15340
C1882       C  0.72118075  0.49693241  0.60929613     0.36990
N1883       N  0.69170618  0.49404839  0.59473255    -0.89590
H1884       H  0.70109130  0.49448752  0.65421019     0.18110
H1885       H  0.79752892  0.00557397  0.59470922     0.18100
N1886       N  0.80682703  0.00709219  0.65537457    -0.88620
H1887       H  0.68283298  0.47241665  0.60035423     0.35470
H1888       H  0.69335445  0.49481137  0.57080458     0.40570
H1889       H  0.80665171  0.02853914  0.66618787     0.40190
H1890       H  0.82471445  0.00783633  0.63935940     0.35080
C1891       C  0.72557975  0.48812212  0.85915448    -0.26650
C1892       C  0.75093122  0.50016838  0.84311288    -0.14720
C1893       C  0.77589317  0.01253709  0.85997341     0.35910
C1894       C  0.77455116  0.01306267  0.89225711    -0.26100
C1895       C  0.74948856  0.50055941  0.90801310    -0.15340
C1896       C  0.72473221  0.48797483  0.89147695     0.36990
N1897       N  0.69873078  0.47545799  0.90760312    -0.89590
H1898       H  0.70645062  0.47854566  0.84644202     0.18110
H1899       H  0.79350461  0.02260382  0.90528197     0.18100
N1900       N  0.80226822  0.02503121  0.84445540    -0.88620
H1901       H  0.68245475  0.46707355  0.89205831     0.35470
H1902       H  0.68829293  0.49342963  0.91957393     0.40570
H1903       H  0.81439712  0.00660362  0.83511342     0.40190
H1904       H  0.81713942  0.03548310  0.86017260     0.35080
C1905       C  0.75127879  0.39162247  0.72342366    -0.26650
C1906       C  0.75002321  0.40730844  0.75154516    -0.14720
C1907       C  0.74776708  0.39044850  0.77934646     0.35910
C1908       C  0.74714836  0.35823333  0.77818561    -0.26100
C1909       C  0.74856199  0.34262617  0.75003391    -0.15340
C1910       C  0.75032761  0.35936967  0.72238952     0.36990
N1911       N  0.75128982  0.34351445  0.69343870    -0.89590
H1912       H  0.75274322  0.40463369  0.70220629     0.18110
H1913       H  0.74564484  0.34527683  0.79943509     0.18100
N1914       N  0.74581415  0.40505647  0.80897258    -0.88620
H1915       H  0.75285897  0.35915112  0.67524725     0.35470
H1916       H  0.73046083  0.33185338  0.69078013     0.40570
H1917       H  0.74624047  0.42894480  0.80720499     0.40190
H1918       H  0.76526523  0.39885298  0.82149429     0.35080
C1919       C  0.77480542  0.10811631  0.73754484    -0.26650
C1920       C  0.74951137  0.09234782  0.74999578    -0.14720
C1921       C  0.72497266  0.10950462  0.76244694     0.35910
C1922       C  0.72646425  0.14178386  0.76220935    -0.26100
C1923       C  0.75176206  0.15756494  0.74977871    -0.15340
C1924       C  0.77626252  0.14042198  0.73726324     0.36990
N1925       N  0.80214128  0.15567932  0.72347886    -0.89590
H1926       H  0.79357662  0.09513424  0.72778113     0.18110
H1927       H  0.70766952  0.15474363  0.77196017     0.18100
N1928       N  0.69898233  0.09429103  0.77609181    -0.88620
H1929       H  0.81668993  0.13977337  0.71301353     0.35470
H1930       H  0.81484813  0.16569330  0.74123503     0.40570
H1931       H  0.68624569  0.08447505  0.75824638     0.40190
H1932       H  0.68448873  0.11019567  0.78663794     0.35080
C1933       C  0.50738924  0.27653955  0.64200910    -0.26650
C1934       C  0.00073290  0.24914723  0.65748819    -0.14720
C1935       C  0.99375504  0.22234411  0.64050356     0.35910
C1936       C  0.99355325  0.22376773  0.60831476    -0.26100
C1937       C  0.99992787  0.25127112  0.59251891    -0.15340
C1938       C  0.50664646  0.27812533  0.60973192     0.36990
N1939       N  0.51294773  0.30684832  0.59462514    -0.89590
H1940       H  0.51254970  0.29699996  0.65527507     0.18110
H1941       H  0.98823090  0.20303253  0.59557532     0.18100
N1942       N  0.98693719  0.19334748  0.65493431    -0.88620
H1943       H  0.51952435  0.32357524  0.61059253     0.35470
H1944       H  0.49237257  0.31451348  0.58509322     0.40570
H1945       H  0.98797884  0.19470246  0.67886168     0.40190
H1946       H  0.00392168  0.17783490  0.64827863     0.35080
C1947       C  0.52688580  0.25103031  0.85829473    -0.26650
C1948       C  0.99871347  0.25031807  0.84255368    -0.14720
C1949       C  0.97115280  0.24934795  0.85986789     0.35910
C1950       C  0.97259600  0.24848278  0.89214804    -0.26100
C1951       C  0.00071681  0.24928942  0.90752482    -0.15340
C1952       C  0.52826574  0.25066415  0.89047563     0.36990
N1953       N  0.55793664  0.25201651  0.90484831    -0.89590
H1954       H  0.54821996  0.25197817  0.84554020     0.18110
H1955       H  0.95159807  0.24768686  0.90549294     0.18100
N1956       N  0.94179918  0.24931451  0.84487244    -0.88620
H1957       H  0.56974532  0.23207192  0.89877565     0.35470
H1958       H  0.55636609  0.25208870  0.92878791     0.40570
H1959       H  0.93895648  0.27092356  0.83481496     0.40190
H1960       H  0.92409697  0.24693014  0.86094337     0.35080
C1961       C  0.52732036  0.00057196  0.60753096    -0.26650
C1962       C  0.49920733  0.99933125  0.59214949    -0.14720
C1963       C  0.97165431  0.49833515  0.60920409     0.35910
C1964       C  0.97302736  0.49839735  0.64139217    -0.26100
C1965       C  0.50118827  0.99947922  0.65714783    -0.15340
C1966       C  0.52875069  0.00039607  0.63983160     0.36990
N1967       N  0.55808926  0.00114682  0.65484461    -0.89590
H1968       H  0.54831807  0.00135419  0.59418471     0.18110
H1969       H  0.95168622  0.49759918  0.65414295     0.18100
N1970       N  0.94197673  0.49704723  0.59482901    -0.88620
H1971       H  0.57576834  0.50348776  0.63874261     0.35470
H1972       H  0.56124206  0.47978192  0.66531967     0.40570
H1973       H  0.94353691  0.99679552  0.57088525     0.40190
H1974       H  0.93029700  0.01711960  0.60072938     0.35080
C1975       C  0.97465937  0.48907227  0.89224298    -0.26650
C1976       C  0.50080914  0.99944620  0.90779567    -0.14720
C1977       C  0.52646604  0.00994591  0.89082627     0.35910
C1978       C  0.52520568  0.00974444  0.85863857    -0.26100
C1979       C  0.49895157  0.99956000  0.84285349    -0.15340
C1980       C  0.97335594  0.48902589  0.85993993     0.36990
N1981       N  0.94630936  0.47795900  0.84458715    -0.89590
H1982       H  0.95509909  0.48106045  0.90544158     0.18110
H1983       H  0.54503989  0.01774833  0.84586945     0.18100
N1984       N  0.55443622  0.02002351  0.90523044    -0.88620
H1985       H  0.92942513  0.47180273  0.86055293     0.35470
H1986       H  0.95222861  0.45784457  0.83291104     0.40570
H1987       H  0.55361775  0.01793992  0.92911508     0.40190
H1988       H  0.55727157  0.04336648  0.90030255     0.35080
C1989       C  0.97348849  0.39193651  0.74352144    -0.26650
C1990       C  0.00104153  0.40753663  0.74979173    -0.14720
C1991       C  0.52770428  0.39032095  0.75613563     0.35910
C1992       C  0.52600787  0.35813799  0.75621189    -0.26100
C1993       C  0.99846811  0.34252770  0.74989122    -0.15340
C1994       C  0.97178849  0.35974676  0.74361531     0.36990
N1995       N  0.94312658  0.34473839  0.73696544    -0.89590
H1996       H  0.95296686  0.40492989  0.73856102     0.18110
H1997       H  0.54653489  0.34516115  0.76119039     0.18100
N1998       N  0.55633572  0.40532825  0.76292910    -0.88620
H1999       H  0.92650757  0.36074629  0.73060940     0.35470
H2000       H  0.93529925  0.33478031  0.75741583     0.40570
H2001       H  0.56431344  0.41520562  0.74249801     0.40190
H2002       H  0.57289804  0.38932832  0.76945166     0.35080
C2003       C  0.97343769  0.14185205  0.74456595    -0.26650
C2004       C  0.00119600  0.15754705  0.74951580    -0.14720
C2005       C  0.52818162  0.14042825  0.75466565     0.35910
C2006       C  0.52656453  0.10824331  0.75506421    -0.26100
C2007       C  0.99878945  0.09254213  0.75017849    -0.15340
C2008       C  0.97181143  0.10967437  0.74498361     0.36990
N2009       N  0.94287523  0.09459208  0.73984600    -0.89590
H2010       H  0.95267358  0.15475963  0.74047245     0.18110
H2011       H  0.54733809  0.09534121  0.75912181     0.18100
N2012       N  0.55709570  0.15553452  0.75985221    -0.88620
H2013       H  0.92593874  0.11052747  0.73418865     0.35470
H2014       H  0.93606433  0.08477013  0.76072160     0.40570
H2015       H  0.56392567  0.16537498  0.73899188     0.40190
H2016       H  0.57403616  0.13960628  0.76551665     0.35080
O2017       O  0.97448995  0.49966126  0.29342489    -0.72110
O2018       O  0.97583168  0.99926671  0.20605572    -0.72330
O2019       O  0.97582332  0.95605014  0.24987983    -0.72190
O2020       O  0.97445739  0.54300865  0.24948741    -0.72200
O2021       O  0.52408651  0.54403137  0.25064967    -0.72160
O2022       O  0.52547326  0.95703571  0.25032211    -0.72180
O2023       O  0.52544917  0.50072163  0.20679722    -0.72120
O2024       O  0.52418675  0.00040056  0.29408081    -0.72300
V2025       V  0.97610311  0.99953866  0.24974148     1.35240
V2026       V  0.52384084  0.00053067  0.25043771     1.35170
C2027       C  0.49912942  0.99986226  0.30871564     0.77130
C2028       C  0.50090314  0.99984291  0.19140417     0.77180
C2029       C  0.00088674  0.94160466  0.25005532     0.77050
C2030       C  0.99901424  0.55846340  0.25009076     0.77020
O2031       O  0.52401531  0.75037103  0.29361885    -0.72110
O2032       O  0.52519268  0.75096037  0.20624960    -0.72330
O2033       O  0.52376910  0.79407347  0.25028889    -0.72190
O2034       O  0.52544109  0.70712822  0.24968165    -0.72200
O2035       O  0.97578829  0.70595869  0.24986033    -0.72160
O2036       O  0.97414085  0.79294522  0.24874279    -0.72180
O2037       O  0.97539569  0.74867196  0.20573906    -0.72120
O2038       O  0.97437940  0.74995087  0.29296782    -0.72300
V2039       V  0.52365431  0.75060110  0.24993351     1.35240
V2040       V  0.97588616  0.74943579  0.24935094     1.35170
C2041       C  0.99896184  0.75025134  0.30830942     0.77130
C2042       C  0.00045978  0.74957133  0.19122807     0.77180
C2043       C  0.99867690  0.80845009  0.24957539     0.77050
C2044       C  0.00091268  0.69160926  0.24972796     0.77020
O2045       O  0.72552571  0.99881599  0.29428732    -0.72110
O2046       O  0.72519951  0.99974141  0.20667457    -0.72330
O2047       O  0.72528762  0.95569385  0.25021184    -0.72190
O2048       O  0.72498705  0.54287891  0.25099121    -0.72200
O2049       O  0.77463395  0.54347385  0.24923013    -0.72160
O2050       O  0.77510708  0.95602736  0.25119118    -0.72180
O2051       O  0.77483959  0.99884758  0.20669329    -0.72120
O2052       O  0.77518235  0.00073134  0.29373699    -0.72300
V2053       V  0.72619262  0.99928558  0.25050338     1.35240
V2054       V  0.77396956  0.99974074  0.25021817     1.35170
C2055       C  0.75054660  0.99994936  0.30897727     0.77130
C2056       C  0.75010925  0.99948266  0.19166258     0.77180
C2057       C  0.75019412  0.94108012  0.25097858     0.77050
C2058       C  0.74966549  0.55816090  0.25014089     0.77020
O2059       O  0.77519390  0.75054068  0.29334212    -0.72110
O2060       O  0.77509783  0.75192871  0.20601952    -0.72330
O2061       O  0.77425347  0.79467637  0.25038076    -0.72190
O2062       O  0.77596120  0.70736099  0.24885849    -0.72200
O2063       O  0.72630706  0.70611518  0.25058096    -0.72160
O2064       O  0.72444341  0.79344334  0.24911460    -0.72180
O2065       O  0.72538438  0.74883061  0.20604519    -0.72120
O2066       O  0.72538221  0.75045700  0.29345269    -0.72300
V2067       V  0.77415750  0.75104397  0.24966178     1.35240
V2068       V  0.72633428  0.74975761  0.24977451     1.35170
C2069       C  0.75030195  0.75094819  0.30823944     0.77130
C2070       C  0.75026418  0.75046201  0.19117925     0.77180
C2071       C  0.74906410  0.80884649  0.24985134     0.77050
C2072       C  0.75143786  0.69175696  0.24964135     0.77020
O2073       O  0.49967730  0.97431625  0.45629098    -0.72110
O2074       O  0.99958600  0.97424032  0.04367518    -0.72330
O2075       O  0.95636562  0.97420967  0.49993484    -0.72190
O2076       O  0.54305505  0.97417034  0.00001583    -0.72200
O2077       O  0.54355525  0.52392656  0.50030279    -0.72160
O2078       O  0.95637839  0.52396767  0.99974044    -0.72180
O2079       O  0.49959382  0.52418585  0.04364899    -0.72120
O2080       O  0.00057648  0.52425022  0.45640083    -0.72300
V2081       V  0.49969483  0.97522187  0.49998252     1.35240
V2082       V  0.49999206  0.52314095  0.00002275     1.35170
C2083       C  0.50038533  0.49932534  0.44156647     0.77130
C2084       C  0.49945961  0.49923579  0.05842126     0.77180
C2085       C  0.94142753  0.49895285  0.99984385     0.77050
C2086       C  0.55824579  0.49891273  0.00011201     0.77020
O2087       O  0.99946593  0.72467977  0.45626194    -0.72110
O2088       O  0.99980171  0.72584601  0.04365904    -0.72330
O2089       O  0.95616713  0.72585165  0.50026765    -0.72190
O2090       O  0.54314756  0.72462252  0.99960365    -0.72200
O2091       O  0.54405865  0.77444998  0.49975116    -0.72160
O2092       O  0.95701789  0.77557533  0.99895220    -0.72180
O2093       O  0.50018239  0.77559521  0.04294705    -0.72120
O2094       O  0.00106342  0.77460739  0.45573751    -0.72300
V2095       V  0.99966524  0.72620493  0.49994222     1.35240
V2096       V  0.00054443  0.77408622  0.99935708     1.35170
C2097       C  0.00042869  0.74949902  0.44124393     0.77130
C2098       C  0.99997155  0.75096696  0.05830443     0.77180
C2099       C  0.94161620  0.75091027  0.99971872     0.77050
C2100       C  0.55848804  0.74932391  0.99949123     0.77020
O2101       O  0.75160662  0.52545117  0.45661181    -0.72110
O2102       O  0.74841255  0.52529656  0.04394645    -0.72330
O2103       O  0.79328103  0.52533353  0.50176474    -0.72190
O2104       O  0.70662937  0.52557235  0.99876862    -0.72200
O2105       O  0.70602669  0.97588733  0.50139674    -0.72160
O2106       O  0.79317017  0.97566422  0.99891776    -0.72180
O2107       O  0.75056046  0.97540801  0.04380061    -0.72120
O2108       O  0.74811547  0.97563032  0.45656115    -0.72300
V2109       V  0.74996641  0.52444916  0.50027336     1.35240
V2110       V  0.74954002  0.97656441  0.00017286     1.35170
C2111       C  0.74970817  0.00055427  0.44179167     0.77130
C2112       C  0.74921244  0.00028356  0.05864179     0.77180
C2113       C  0.80818952  0.00060875  0.00030477     0.77050
C2114       C  0.69138608  0.00089016  0.00009201     0.77020
O2115       O  0.75017947  0.77449714  0.45620338    -0.72110
O2116       O  0.75037463  0.77353113  0.04361217    -0.72330
O2117       O  0.79364506  0.77342438  0.49968729    -0.72190
O2118       O  0.70666119  0.77463676  0.00019093    -0.72200
O2119       O  0.70571613  0.72482177  0.49922125    -0.72160
O2120       O  0.79275063  0.72368565  0.99955452    -0.72180
O2121       O  0.74885052  0.72372968  0.04302926    -0.72120
O2122       O  0.74922251  0.72462822  0.45573287    -0.72300
V2123       V  0.75016814  0.77306313  0.49990512     1.35240
V2124       V  0.74920441  0.72518644  0.99939171     1.35170
C2125       C  0.74954933  0.74969382  0.44107959     0.77130
C2126       C  0.74945037  0.74843660  0.05825422     0.77180
C2127       C  0.80817403  0.74835628  0.99955561     0.77050
C2128       C  0.69130143  0.74993710  0.99990970     0.77020
C2129       C  0.89182471  0.72268932  0.00163701    -0.26650
C2130       C  0.90745258  0.75095805  0.99997097    -0.14720
C2131       C  0.89014272  0.77831857  0.49825422     0.35910
C2132       C  0.85796461  0.77660039  0.49782689    -0.26100
C2133       C  0.84233797  0.74832152  0.99941356    -0.15340
C2134       C  0.85964782  0.72097327  0.00124998     0.36990
N2135       N  0.84473949  0.69149620  0.00286740    -0.89590
H2136       H  0.90478237  0.70157910  0.00301652     0.18110
H2137       H  0.84500476  0.79771115  0.49646160     0.18100
N2138       N  0.90505166  0.80780931  0.49687034    -0.88620
H2139       H  0.86075554  0.67400174  0.50606877     0.35470
H2140       H  0.83462537  0.68738358  0.48146362     0.40570
H2141       H  0.91526084  0.81170589  0.01826973     0.40190
H2142       H  0.88902952  0.82534007  0.99390513     0.35080
C2143       C  0.64139178  0.72476657  0.48819641    -0.26650
C2144       C  0.65732193  0.75018270  0.00016282    -0.14720
C2145       C  0.64057653  0.77520807  0.01210772     0.35910
C2146       C  0.60839108  0.77446242  0.01121078    -0.26100
C2147       C  0.59246148  0.74905004  0.99924890    -0.15340
C2148       C  0.60920311  0.72395257  0.48743512     0.36990
N2149       N  0.59359467  0.69795161  0.47424997    -0.89590
H2150       H  0.65413900  0.70560405  0.47885896     0.18110
H2151       H  0.59564075  0.79362448  0.02054287     0.18100
N2152       N  0.65618611  0.80100165  0.02568735    -0.88620
H2153       H  0.60928329  0.68134817  0.46705119     0.35470
H2154       H  0.58232036  0.70551775  0.45447160     0.40570
H2155       H  0.66735004  0.79312587  0.04541961     0.40190
H2156       H  0.64050368  0.81754728  0.03303398     0.35080
C2157       C  0.85782257  0.97310947  0.49478692    -0.26650
C2158       C  0.84231053  0.00079252  0.00010278    -0.14720
C2159       C  0.85968641  0.52786922  0.00536068     0.35910
C2160       C  0.89184245  0.52641236  0.00539124    -0.26100
C2161       C  0.90733768  0.99873664  0.00007034    -0.15340
C2162       C  0.88998537  0.97165921  0.49482367     0.36990
N2163       N  0.90484122  0.94278230  0.48917750    -0.89590
H2164       H  0.84478470  0.95228645  0.49067244     0.18110
H2165       H  0.90489706  0.54722198  0.00953101     0.18100
N2166       N  0.84486677  0.55678185  0.01091453    -0.88620
H2167       H  0.88881404  0.92585542  0.48329824     0.35470
H2168       H  0.91460707  0.93566567  0.50991890     0.40570
H2169       H  0.83500609  0.56378646  0.99017877     0.40190
H2170       H  0.86091432  0.57373841  0.01665135     0.35080
C2171       C  0.64162995  0.97309591  0.00414468    -0.26650
C2172       C  0.65731428  0.00105350  0.00021143    -0.14720
C2173       C  0.64015769  0.52828894  0.49616170     0.35910
C2174       C  0.60800421  0.52672897  0.49591640    -0.26100
C2175       C  0.59232314  0.99877233  0.99988060    -0.15340
C2176       C  0.60948544  0.97153136  0.00387739     0.36990
N2177       N  0.59446115  0.94234188  0.00792901    -0.89590
H2178       H  0.65451255  0.95212589  0.00728978     0.18110
H2179       H  0.59510527  0.54768502  0.49274252     0.18100
N2180       N  0.65519362  0.55747579  0.49213944    -0.88620
H2181       H  0.61038009  0.92516063  0.01285766     0.35470
H2182       H  0.58462300  0.93636189  0.98683604     0.40570
H2183       H  0.66516658  0.56336215  0.51319548     0.40190
H2184       H  0.63927049  0.57469221  0.48734939     0.35080
C2185       C  0.73411684  0.72698614  0.14185964    -0.26650
C2186       C  0.75031720  0.75018306  0.15726860    -0.14720
C2187       C  0.76627617  0.77265239  0.14016455     0.35910
C2188       C  0.76506677  0.77184601  0.10788778    -0.26100
C2189       C  0.74951455  0.74821859  0.09232947    -0.15340
C2190       C  0.73414281  0.72525942  0.10954966     0.36990
N2191       N  0.71798966  0.70075419  0.09433129    -0.89590
H2192       H  0.72204357  0.70968654  0.15516143     0.18110
H2193       H  0.77694766  0.78940690  0.09476845     0.18100
N2194       N  0.78294571  0.79666905  0.15556190    -0.88620
H2195       H  0.70606335  0.68729647  0.11031781     0.35470
H2196       H  0.73438181  0.68631402  0.08452755     0.40570
H2197       H  0.80179996  0.78667581  0.16638315     0.40190
H2198       H  0.79184362  0.81235879  0.13964751     0.35080
C2199       C  0.73254403  0.72963358  0.35779106    -0.26650
C2200       C  0.75020036  0.75166063  0.34214820    -0.14720
C2201       C  0.76724976  0.77355737  0.35925525     0.35910
C2202       C  0.76650971  0.77242000  0.39146047    -0.26100
C2203       C  0.74929849  0.75004106  0.40708962    -0.15340
C2204       C  0.73194673  0.72851848  0.39009707     0.36990
N2205       N  0.71343777  0.70594591  0.40566997    -0.89590
H2206       H  0.71936046  0.71303296  0.34468373     0.18110
H2207       H  0.77960057  0.78921461  0.40441407     0.18100
N2208       N  0.78444213  0.79801745  0.34507101    -0.88620
H2209       H  0.70227014  0.69175250  0.38980574     0.35470
H2210       H  0.69630987  0.71762668  0.41770450     0.40570
H2211       H  0.78117482  0.79901890  0.32135772     0.40190
H2212       H  0.80769209  0.79384923  0.34898309     0.35080
C2213       C  0.72235239  0.99694537  0.14152445    -0.26650
C2214       C  0.75028866  0.99994948  0.15740482    -0.14720
C2215       C  0.77777971  0.50329132  0.14021651     0.35910
C2216       C  0.77657081  0.50310496  0.10792568    -0.26100
C2217       C  0.74869735  0.00010368  0.09238400    -0.15340
C2218       C  0.72118077  0.99693243  0.10929614     0.36990
N2219       N  0.69170620  0.99404844  0.09473256    -0.89590
H2220       H  0.70109133  0.99448754  0.15421019     0.18110
H2221       H  0.79752890  0.50557393  0.09470921     0.18100
N2222       N  0.80682702  0.50709216  0.15537456    -0.88620
H2223       H  0.68283298  0.97241670  0.10035423     0.35470
H2224       H  0.69335447  0.99481143  0.07080459     0.40570
H2225       H  0.80665171  0.52853911  0.16618785     0.40190
H2226       H  0.82471443  0.50783629  0.13935938     0.35080
C2227       C  0.72557975  0.98812210  0.35915448    -0.26650
C2228       C  0.75093122  0.00016837  0.34311288    -0.14720
C2229       C  0.77589319  0.51253709  0.35997340     0.35910
C2230       C  0.77455117  0.51306267  0.39225710    -0.26100
C2231       C  0.74948855  0.00055939  0.40801311    -0.15340
C2232       C  0.72473220  0.98797481  0.39147695     0.36990
N2233       N  0.69873077  0.97545796  0.40760312    -0.89590
H2234       H  0.70645062  0.97854564  0.34644202     0.18110
H2235       H  0.79350463  0.52260383  0.40528197     0.18100
N2236       N  0.80226824  0.52503120  0.34445538    -0.88620
H2237       H  0.68245475  0.96707352  0.39205830     0.35470
H2238       H  0.68829292  0.99342960  0.41957394     0.40570
H2239       H  0.81439713  0.50660361  0.33511341     0.40190
H2240       H  0.81713944  0.53548309  0.36017259     0.35080
C2241       C  0.75127882  0.89162246  0.22342367    -0.26650
C2242       C  0.75002321  0.90730843  0.25154517    -0.14720
C2243       C  0.74776704  0.89044848  0.27934647     0.35910
C2244       C  0.74714830  0.85823332  0.27818560    -0.26100
C2245       C  0.74856197  0.84262616  0.25003391    -0.15340
C2246       C  0.75032764  0.85936966  0.22238952     0.36990
N2247       N  0.75128988  0.84351445  0.19343869    -0.89590
H2248       H  0.75274329  0.90463369  0.20220630     0.18110
H2249       H  0.74564475  0.84527681  0.29943508     0.18100
N2250       N  0.74581408  0.90505644  0.30897258    -0.88620
H2251       H  0.75285906  0.85915113  0.17524725     0.35470
H2252       H  0.73046089  0.83185339  0.19078010     0.40570
H2253       H  0.74624040  0.92894478  0.30720500     0.40190
H2254       H  0.76526514  0.89885295  0.32149432     0.35080
C2255       C  0.77480542  0.60811631  0.23754484    -0.26650
C2256       C  0.74951137  0.59234781  0.24999579    -0.14720
C2257       C  0.72497266  0.60950461  0.26244696     0.35910
C2258       C  0.72646424  0.64178385  0.26220936    -0.26100
C2259       C  0.75176204  0.65756493  0.24977871    -0.15340
C2260       C  0.77626251  0.64042197  0.23726324     0.36990
N2261       N  0.80214127  0.65567932  0.22347887    -0.89590
H2262       H  0.79357662  0.59513424  0.22778113     0.18110
H2263       H  0.70766951  0.65474362  0.27196017     0.18100
N2264       N  0.69898233  0.59429102  0.27609183    -0.88620
H2265       H  0.81668992  0.63977337  0.21301355     0.35470
H2266       H  0.81484812  0.66569330  0.24123504     0.40570
H2267       H  0.68624569  0.58447503  0.25824641     0.40190
H2268       H  0.68448874  0.61019566  0.28663797     0.35080
C2269       C  0.50738931  0.77653954  0.14200910    -0.26650
C2270       C  0.00073290  0.74914723  0.15748818    -0.14720
C2271       C  0.99375512  0.72234408  0.14050356     0.35910
C2272       C  0.99355335  0.72376769  0.10831476    -0.26100
C2273       C  0.99992791  0.75127109  0.09251890    -0.15340
C2274       C  0.50664650  0.77812532  0.10973192     0.36990
N2275       N  0.51294783  0.80684830  0.09462514    -0.89590
H2276       H  0.51254982  0.79699993  0.15527506     0.18110
H2277       H  0.98823106  0.70303247  0.09557532     0.18100
N2278       N  0.98693730  0.69334745  0.15493432    -0.88620
H2279       H  0.51952449  0.82357520  0.11059253     0.35470
H2280       H  0.49237268  0.81451351  0.08509323     0.40570
H2281       H  0.98797889  0.69470245  0.17886169     0.40190
H2282       H  0.00392184  0.67783490  0.14827869     0.35080
C2283       C  0.52688576  0.75103028  0.35829474    -0.26650
C2284       C  0.99871353  0.75031808  0.34255368    -0.14720
C2285       C  0.97115285  0.74934797  0.35986788     0.35910
C2286       C  0.97259604  0.74848282  0.39214803    -0.26100
C2287       C  0.00071684  0.74928945  0.40752482    -0.15340
C2288       C  0.52826572  0.75066412  0.39047563     0.36990
N2289       N  0.55793662  0.75201648  0.40484831    -0.89590
H2290       H  0.54821993  0.75197812  0.34554020     0.18110
H2291       H  0.95159811  0.74768691  0.40549292     0.18100
N2292       N  0.94179923  0.74931455  0.34487243    -0.88620
H2293       H  0.56974529  0.73207188  0.39877565     0.35470
H2294       H  0.55636607  0.75208867  0.42878791     0.40570
H2295       H  0.93895654  0.77092359  0.33481494     0.40190
H2296       H  0.92409701  0.74693018  0.36094335     0.35080
C2297       C  0.52732036  0.50057199  0.10753096    -0.26650
C2298       C  0.49920733  0.49933126  0.09214949    -0.14720
C2299       C  0.97165431  0.99833516  0.10920409     0.35910
C2300       C  0.97302735  0.99839735  0.14139217    -0.26100
C2301       C  0.50118826  0.49947923  0.15714783    -0.15340
C2302       C  0.52875068  0.50039610  0.13983161     0.36990
N2303       N  0.55808925  0.50114686  0.15484463    -0.89590
H2304       H  0.54831807  0.50135423  0.09418472     0.18110
H2305       H  0.95168622  0.99759918  0.15414294     0.18100
N2306       N  0.94197673  0.99704725  0.09482900    -0.88620
H2307       H  0.57576835  0.00348778  0.13874260     0.35470
H2308       H  0.56124207  0.97978193  0.16531966     0.40570
H2309       H  0.94353691  0.49679552  0.07088525     0.40190
H2310       H  0.93029700  0.51711959  0.10072938     0.35080
C2311       C  0.97465936  0.98907226  0.39224299    -0.26650
C2312       C  0.50080912  0.49944618  0.40779567    -0.14720
C2313       C  0.52646602  0.50994587  0.39082628     0.35910
C2314       C  0.52520565  0.50974441  0.35863857    -0.26100
C2315       C  0.49895154  0.49955999  0.34285349    -0.15340
C2316       C  0.97335593  0.98902589  0.35993993     0.36990
N2317       N  0.94630934  0.97795901  0.34458716    -0.89590
H2318       H  0.95509908  0.98106044  0.40544159     0.18110
H2319       H  0.54503987  0.51774830  0.34586945     0.18100
N2320       N  0.55443621  0.52002346  0.40523044    -0.88620
H2321       H  0.92942511  0.97180274  0.36055294     0.35470
H2322       H  0.95222858  0.95784458  0.33291105     0.40570
H2323       H  0.55361774  0.51793986  0.42911508     0.40190
H2324       H  0.55727157  0.54336643  0.40030255     0.35080
C2325       C  0.97348850  0.89193650  0.24352146    -0.26650
C2326       C  0.00104155  0.90753662  0.24979175    -0.14720
C2327       C  0.52770427  0.89032094  0.25613567     0.35910
C2328       C  0.52600786  0.85813798  0.25621193    -0.26100
C2329       C  0.99846814  0.84252770  0.24989123    -0.15340
C2330       C  0.97178851  0.85974675  0.24361532     0.36990
N2331       N  0.94312660  0.84473838  0.23696545    -0.89590
H2332       H  0.95296687  0.90492987  0.23856104     0.18110
H2333       H  0.54653488  0.84516114  0.26119044     0.18100
N2334       N  0.55633571  0.90532823  0.26292915    -0.88620
H2335       H  0.92650759  0.86074627  0.23060941     0.35470
H2336       H  0.93529927  0.83478030  0.25741585     0.40570
H2337       H  0.56431345  0.91520559  0.24249806     0.40190
H2338       H  0.57289802  0.88932831  0.26945172     0.35080
C2339       C  0.97343772  0.64185205  0.24456594    -0.26650
C2340       C  0.00119603  0.65754705  0.24951579    -0.14720
C2341       C  0.52818159  0.64042824  0.25466565     0.35910
C2342       C  0.52656449  0.60824330  0.25506421    -0.26100
C2343       C  0.99878948  0.59254212  0.25017849    -0.15340
C2344       C  0.97181147  0.60967437  0.24498359     0.36990
N2345       N  0.94287526  0.59459208  0.23984597    -0.89590
H2346       H  0.95267362  0.65475963  0.24047242     0.18110
H2347       H  0.54733805  0.59534120  0.25912182     0.18100
N2348       N  0.55709567  0.65553451  0.25985223    -0.88620
H2349       H  0.92593878  0.61052748  0.23418861     0.35470
H2350       H  0.93606435  0.58477014  0.26072158     0.40570
H2351       H  0.56392565  0.66537496  0.23899190     0.40190
H2352       H  0.57403613  0.63960627  0.26551667     0.35080
O2353       O  0.97448995  0.49966127  0.79342489    -0.72110
O2354       O  0.97583167  0.99926673  0.70605572    -0.72330
O2355       O  0.97582333  0.95605015  0.74987982    -0.72190
O2356       O  0.97445739  0.54300865  0.74948741    -0.72200
O2357       O  0.52408652  0.54403137  0.75064966    -0.72160
O2358       O  0.52547326  0.95703573  0.75032210    -0.72180
O2359       O  0.52544918  0.50072162  0.70679723    -0.72120
O2360       O  0.52418675  0.00040056  0.79408080    -0.72300
V2361       V  0.97610311  0.99953867  0.74974148     1.35240
V2362       V  0.52384083  0.00053069  0.75043771     1.35170
C2363       C  0.49912941  0.99986227  0.80871564     0.77130
C2364       C  0.50090314  0.99984293  0.69140416     0.77180
C2365       C  0.00088675  0.94160467  0.75005530     0.77050
C2366       C  0.99901424  0.55846340  0.75009076     0.77020
O2367       O  0.52401531  0.75037104  0.79361885    -0.72110
O2368       O  0.52519269  0.75096037  0.70624960    -0.72330
O2369       O  0.52376911  0.79407348  0.75028888    -0.72190
O2370       O  0.52544110  0.70712823  0.74968165    -0.72200
O2371       O  0.97578829  0.70595869  0.74986034    -0.72160
O2372       O  0.97414086  0.79294523  0.74874277    -0.72180
O2373       O  0.97539570  0.74867196  0.70573905    -0.72120
O2374       O  0.97437939  0.74995089  0.79296781    -0.72300
V2375       V  0.52365431  0.75060111  0.74993350     1.35240
V2376       V  0.97588616  0.74943580  0.74935094     1.35170
C2377       C  0.99896183  0.75025136  0.80830942     0.77130
C2378       C  0.00045978  0.74957133  0.69122807     0.77180
C2379       C  0.99867690  0.80845010  0.74957537     0.77050
C2380       C  0.00091268  0.69160926  0.74972797     0.77020
O2381       O  0.72552570  0.99881600  0.79428732    -0.72110
O2382       O  0.72519950  0.99974142  0.70667457    -0.72330
O2383       O  0.72528761  0.95569386  0.75021184    -0.72190
O2384       O  0.72498705  0.54287892  0.75099121    -0.72200
O2385       O  0.77463395  0.54347386  0.74923013    -0.72160
O2386       O  0.77510707  0.95602737  0.75119117    -0.72180
O2387       O  0.77483957  0.99884759  0.70669329    -0.72120
O2388       O  0.77518233  0.00073135  0.79373699    -0.72300
V2389       V  0.72619260  0.99928559  0.75050338     1.35240
V2390       V  0.77396954  0.99974075  0.75021817     1.35170
C2391       C  0.75054658  0.99994937  0.80897727     0.77130
C2392       C  0.75010923  0.99948267  0.69166258     0.77180
C2393       C  0.75019411  0.94108013  0.75097858     0.77050
C2394       C  0.74966549  0.55816091  0.75014088     0.77020
O2395       O  0.77519392  0.75054068  0.79334212    -0.72110
O2396       O  0.77509783  0.75192874  0.70601951    -0.72330
O2397       O  0.77425348  0.79467638  0.75038078    -0.72190
O2398       O  0.77596121  0.70736100  0.74885848    -0.72200
O2399       O  0.72630706  0.70611519  0.75058097    -0.72160
O2400       O  0.72444342  0.79344335  0.74911460    -0.72180
O2401       O  0.72538438  0.74883061  0.70604520    -0.72120
O2402       O  0.72538223  0.75045702  0.79345270    -0.72300
V2403       V  0.77415751  0.75104398  0.74966178     1.35240
V2404       V  0.72633429  0.74975762  0.74977451     1.35170
C2405       C  0.75030197  0.75094819  0.80823944     0.77130
C2406       C  0.75026417  0.75046202  0.69117925     0.77180
C2407       C  0.74906411  0.80884651  0.74985135     0.77050
C2408       C  0.75143787  0.69175697  0.74964135     0.77020
O2409       O  0.49967731  0.97431625  0.95629098    -0.72110
O2410       O  0.99958602  0.97424030  0.54367518    -0.72330
O2411       O  0.95636562  0.97420968  0.99993484    -0.72190
O2412       O  0.54305505  0.97417034  0.50001582    -0.72200
O2413       O  0.54355525  0.52392657  0.00030278    -0.72160
O2414       O  0.95637839  0.52396766  0.49974044    -0.72180
O2415       O  0.49959382  0.52418585  0.54364899    -0.72120
O2416       O  0.00057647  0.52425024  0.95640083    -0.72300
V2417       V  0.49969483  0.97522188  0.99998253     1.35240
V2418       V  0.49999206  0.52314094  0.50002275     1.35170
C2419       C  0.50038534  0.49932536  0.94156647     0.77130
C2420       C  0.49945961  0.49923580  0.55842127     0.77180
C2421       C  0.94142753  0.49895284  0.49984386     0.77050
C2422       C  0.55824579  0.49891272  0.50011202     0.77020
O2423       O  0.99946591  0.72467977  0.95626193    -0.72110
O2424       O  0.99980170  0.72584602  0.54365905    -0.72330
O2425       O  0.95616713  0.72585164  0.00026766    -0.72190
O2426       O  0.54314756  0.72462253  0.49960366    -0.72200
O2427       O  0.54405864  0.77444997  0.99975116    -0.72160
O2428       O  0.95701789  0.77557534  0.49895221    -0.72180
O2429       O  0.50018239  0.77559522  0.54294705    -0.72120
O2430       O  0.00106341  0.77460738  0.95573751    -0.72300
V2431       V  0.99966524  0.72620492  0.99994222     1.35240
V2432       V  0.00054444  0.77408622  0.49935709     1.35170
C2433       C  0.00042868  0.74949901  0.94124392     0.77130
C2434       C  0.99997156  0.75096696  0.55830443     0.77180
C2435       C  0.94161620  0.75091029  0.49971873     0.77050
C2436       C  0.55848804  0.74932392  0.49949125     0.77020
O2437       O  0.75160662  0.52545118  0.95661181    -0.72110
O2438       O  0.74841256  0.52529656  0.54394645    -0.72330
O2439       O  0.79328102  0.52533354  0.00176475    -0.72190
O2440       O  0.70662937  0.52557235  0.49876863    -0.72200
O2441       O  0.70602670  0.97588732  0.00139674    -0.72160
O2442       O  0.79317016  0.97566423  0.49891776    -0.72180
O2443       O  0.75056045  0.97540802  0.54380061    -0.72120
O2444       O  0.74811547  0.97563032  0.95656115    -0.72300
V2445       V  0.74996641  0.52444917  0.00027336     1.35240
V2446       V  0.74954001  0.97656441  0.50017286     1.35170
C2447       C  0.74970817  0.00055426  0.94179167     0.77130
C2448       C  0.74921244  0.00028356  0.55864179     0.77180
C2449       C  0.80818952  0.00060875  0.50030477     0.77050
C2450       C  0.69138608  0.00089017  0.50009202     0.77020
O2451       O  0.75017946  0.77449713  0.95620338    -0.72110
O2452       O  0.75037463  0.77353115  0.54361217    -0.72330
O2453       O  0.79364505  0.77342436  0.99968729    -0.72190
O2454       O  0.70666119  0.77463677  0.50019093    -0.72200
O2455       O  0.70571613  0.72482176  0.99922124    -0.72160
O2456       O  0.79275064  0.72368567  0.49955452    -0.72180
O2457       O  0.74885052  0.72372970  0.54302926    -0.72120
O2458       O  0.74922251  0.72462821  0.95573287    -0.72300
V2459       V  0.75016813  0.77306312  0.99990512     1.35240
V2460       V  0.74920441  0.72518646  0.49939172     1.35170
C2461       C  0.74954933  0.74969381  0.94107958     0.77130
C2462       C  0.74945037  0.74843662  0.55825422     0.77180
C2463       C  0.80817404  0.74835630  0.49955562     0.77050
C2464       C  0.69130144  0.74993711  0.49990970     0.77020
C2465       C  0.89182472  0.72268933  0.50163704    -0.26650
C2466       C  0.90745259  0.75095806  0.49997098    -0.14720
C2467       C  0.89014271  0.77831856  0.99825421     0.35910
C2468       C  0.85796460  0.77660037  0.99782688    -0.26100
C2469       C  0.84233797  0.74832153  0.49941358    -0.15340
C2470       C  0.85964783  0.72097329  0.50125001     0.36990
N2471       N  0.84473950  0.69149621  0.50286745    -0.89590
H2472       H  0.90478238  0.70157911  0.50301655     0.18110
H2473       H  0.84500475  0.79771114  0.99646160     0.18100
N2474       N  0.90505165  0.80780930  0.99687033    -0.88620
H2475       H  0.86075554  0.67400173  0.00606870     0.35470
H2476       H  0.83462537  0.68738358  0.98146357     0.40570
H2477       H  0.91526084  0.81170591  0.51826973     0.40190
H2478       H  0.88902953  0.82534009  0.49390513     0.35080
C2479       C  0.64139178  0.72476656  0.98819639    -0.26650
C2480       C  0.65732193  0.75018271  0.50016284    -0.14720
C2481       C  0.64057653  0.77520808  0.51210774     0.35910
C2482       C  0.60839108  0.77446243  0.51121080    -0.26100
C2483       C  0.59246148  0.74905004  0.49924892    -0.15340
C2484       C  0.60920311  0.72395257  0.98743509     0.36990
N2485       N  0.59359467  0.69795161  0.97424993    -0.89590
H2486       H  0.65413900  0.70560404  0.97885893     0.18110
H2487       H  0.59564075  0.79362449  0.52054288     0.18100
N2488       N  0.65618612  0.80100166  0.52568736    -0.88620
H2489       H  0.60928329  0.68134817  0.96705114     0.35470
H2490       H  0.58232036  0.70551776  0.95447156     0.40570
H2491       H  0.66735004  0.79312588  0.54541962     0.40190
H2492       H  0.64050369  0.81754729  0.53303399     0.35080
C2493       C  0.85782258  0.97310948  0.99478692    -0.26650
C2494       C  0.84231052  0.00079251  0.50010279    -0.14720
C2495       C  0.85968642  0.52786921  0.50536069     0.35910
C2496       C  0.89184245  0.52641234  0.50539125    -0.26100
C2497       C  0.90733767  0.99873662  0.50007035    -0.15340
C2498       C  0.88998537  0.97165923  0.99482367     0.36990
N2499       N  0.90484123  0.94278231  0.98917749    -0.89590
H2500       H  0.84478471  0.95228646  0.99067243     0.18110
H2501       H  0.90489706  0.54722196  0.50953102     0.18100
N2502       N  0.84486677  0.55678183  0.51091454    -0.88620
H2503       H  0.88881405  0.92585544  0.98329822     0.35470
H2504       H  0.91460708  0.93566569  0.00991889     0.40570
H2505       H  0.83500610  0.56378645  0.49017878     0.40190
H2506       H  0.86091432  0.57373839  0.51665137     0.35080
C2507       C  0.64162995  0.97309593  0.50414473    -0.26650
C2508       C  0.65731428  0.00105351  0.50021145    -0.14720
C2509       C  0.64015769  0.52828894  0.99616170     0.35910
C2510       C  0.60800421  0.52672897  0.99591639    -0.26100
C2511       C  0.59232314  0.99877233  0.49988063    -0.15340
C2512       C  0.60948544  0.97153137  0.50387744     0.36990
N2513       N  0.59446116  0.94234189  0.50792910    -0.89590
H2514       H  0.65451255  0.95212591  0.50728985     0.18110
H2515       H  0.59510527  0.54768503  0.99274253     0.18100
N2516       N  0.65519362  0.55747580  0.99213946    -0.88620
H2517       H  0.61038009  0.92516066  0.51285778     0.35470
H2518       H  0.58462301  0.93636187  0.48683613     0.40570
H2519       H  0.66516658  0.56336215  0.01319550     0.40190
H2520       H  0.63927049  0.57469222  0.98734941     0.35080
C2521       C  0.73411683  0.72698616  0.64185965    -0.26650
C2522       C  0.75031720  0.75018308  0.65726860    -0.14720
C2523       C  0.76627616  0.77265241  0.64016456     0.35910
C2524       C  0.76506676  0.77184603  0.60788778    -0.26100
C2525       C  0.74951454  0.74821861  0.59232947    -0.15340
C2526       C  0.73414281  0.72525944  0.60954966     0.36990
N2527       N  0.71798966  0.70075420  0.59433129    -0.89590
H2528       H  0.72204356  0.70968656  0.65516143     0.18110
H2529       H  0.77694765  0.78940692  0.59476846     0.18100
N2530       N  0.78294570  0.79666907  0.65556190    -0.88620
H2531       H  0.70606335  0.68729649  0.61031781     0.35470
H2532       H  0.73438181  0.68631403  0.58452756     0.40570
H2533       H  0.80179995  0.78667584  0.66638315     0.40190
H2534       H  0.79184361  0.81235882  0.63964751     0.35080
C2535       C  0.73254408  0.72963355  0.85779105    -0.26650
C2536       C  0.75020038  0.75166063  0.84214820    -0.14720
C2537       C  0.76724975  0.77355739  0.85925526     0.35910
C2538       C  0.76650969  0.77242002  0.89146047    -0.26100
C2539       C  0.74929849  0.75004105  0.90708962    -0.15340
C2540       C  0.73194677  0.72851845  0.89009706     0.36990
N2541       N  0.71343784  0.70594586  0.90566996    -0.89590
H2542       H  0.71936054  0.71303292  0.84468372     0.18110
H2543       H  0.77960053  0.78921464  0.90441408     0.18100
N2544       N  0.78444211  0.79801748  0.84507102    -0.88620
H2545       H  0.70227024  0.69175243  0.88980571     0.35470
H2546       H  0.69630991  0.71762660  0.91770447     0.40570
H2547       H  0.78117483  0.79901890  0.82135773     0.40190
H2548       H  0.80769207  0.79384930  0.84898314     0.35080
C2549       C  0.72235238  0.99694536  0.64152445    -0.26650
C2550       C  0.75028864  0.99994950  0.65740482    -0.14720
C2551       C  0.77777972  0.50329134  0.64021651     0.35910
C2552       C  0.77657082  0.50310498  0.60792569    -0.26100
C2553       C  0.74869734  0.00010369  0.59238400    -0.15340
C2554       C  0.72118076  0.99693241  0.60929614     0.36990
N2555       N  0.69170619  0.99404841  0.59473255    -0.89590
H2556       H  0.70109132  0.99448752  0.65421019     0.18110
H2557       H  0.79752890  0.50557398  0.59470921     0.18100
N2558       N  0.80682702  0.50709220  0.65537456    -0.88620
H2559       H  0.68283299  0.97241666  0.60035423     0.35470
H2560       H  0.69335447  0.99481139  0.57080459     0.40570
H2561       H  0.80665169  0.52853915  0.66618786     0.40190
H2562       H  0.82471443  0.50783635  0.63935939     0.35080
C2563       C  0.72557973  0.98812211  0.85915448    -0.26650
C2564       C  0.75093120  0.00016837  0.84311288    -0.14720
C2565       C  0.77589318  0.51253711  0.85997340     0.35910
C2566       C  0.77455117  0.51306269  0.89225710    -0.26100
C2567       C  0.74948855  0.00055939  0.90801311    -0.15340
C2568       C  0.72473219  0.98797481  0.89147695     0.36990
N2569       N  0.69873076  0.97545798  0.90760313    -0.89590
H2570       H  0.70645060  0.97854566  0.84644202     0.18110
H2571       H  0.79350462  0.52260385  0.90528196     0.18100
N2572       N  0.80226823  0.52503122  0.84445538    -0.88620
H2573       H  0.68245473  0.96707354  0.89205831     0.35470
H2574       H  0.68829292  0.99342961  0.91957394     0.40570
H2575       H  0.81439713  0.50660364  0.83511341     0.40190
H2576       H  0.81713943  0.53548312  0.86017259     0.35080
C2577       C  0.75127880  0.89162247  0.72342367    -0.26650
C2578       C  0.75002320  0.90730844  0.75154516    -0.14720
C2579       C  0.74776705  0.89044850  0.77934647     0.35910
C2580       C  0.74714832  0.85823333  0.77818561    -0.26100
C2581       C  0.74856197  0.84262617  0.75003391    -0.15340
C2582       C  0.75032762  0.85936967  0.72238952     0.36990
N2583       N  0.75128984  0.84351446  0.69343870    -0.89590
H2584       H  0.75274325  0.90463370  0.70220630     0.18110
H2585       H  0.74564479  0.84527682  0.79943508     0.18100
N2586       N  0.74581411  0.90505646  0.80897258    -0.88620
H2587       H  0.75285901  0.85915113  0.67524725     0.35470
H2588       H  0.73046085  0.83185340  0.69078011     0.40570
H2589       H  0.74624043  0.92894479  0.80720500     0.40190
H2590       H  0.76526518  0.89885297  0.82149431     0.35080
C2591       C  0.77480542  0.60811631  0.73754484    -0.26650
C2592       C  0.74951137  0.59234782  0.74999578    -0.14720
C2593       C  0.72497266  0.60950462  0.76244695     0.35910
C2594       C  0.72646424  0.64178386  0.76220935    -0.26100
C2595       C  0.75176205  0.65756494  0.74977871    -0.15340
C2596       C  0.77626251  0.64042198  0.73726324     0.36990
N2597       N  0.80214128  0.65567933  0.72347887    -0.89590
H2598       H  0.79357662  0.59513425  0.72778114     0.18110
H2599       H  0.70766951  0.65474363  0.77196016     0.18100
N2600       N  0.69898233  0.59429103  0.77609182    -0.88620
H2601       H  0.81668993  0.63977337  0.71301355     0.35470
H2602       H  0.81484813  0.66569331  0.74123505     0.40570
H2603       H  0.68624569  0.58447505  0.75824639     0.40190
H2604       H  0.68448874  0.61019567  0.78663795     0.35080
C2605       C  0.50738928  0.77653955  0.64200911    -0.26650
C2606       C  0.00073291  0.74914723  0.65748819    -0.14720
C2607       C  0.99375512  0.72234408  0.64050356     0.35910
C2608       C  0.99355335  0.72376769  0.60831476    -0.26100
C2609       C  0.99992791  0.75127109  0.59251891    -0.15340
C2610       C  0.50664647  0.77812533  0.60973193     0.36990
N2611       N  0.51294777  0.80684832  0.59462515    -0.89590
H2612       H  0.51254977  0.79699994  0.65527507     0.18110
H2613       H  0.98823106  0.70303247  0.59557532     0.18100
N2614       N  0.98693731  0.69334744  0.65493432    -0.88620
H2615       H  0.51952441  0.82357523  0.61059254     0.35470
H2616       H  0.49237261  0.81451350  0.58509324     0.40570
H2617       H  0.98797890  0.69470245  0.67886169     0.40190
H2618       H  0.00392185  0.67783490  0.64827868     0.35080
C2619       C  0.52688577  0.75103030  0.85829474    -0.26650
C2620       C  0.99871351  0.75031810  0.84255368    -0.14720
C2621       C  0.97115284  0.74934796  0.85986788     0.35910
C2622       C  0.97259602  0.74848280  0.89214803    -0.26100
C2623       C  0.00071683  0.74928944  0.90752481    -0.15340
C2624       C  0.52826572  0.75066414  0.89047563     0.36990
N2625       N  0.55793662  0.75201651  0.90484831    -0.89590
H2626       H  0.54821993  0.75197816  0.84554020     0.18110
H2627       H  0.95159810  0.74768687  0.90549292     0.18100
N2628       N  0.94179922  0.74931452  0.84487242    -0.88620
H2629       H  0.56974530  0.73207192  0.89877565     0.35470
H2630       H  0.55636607  0.75208869  0.92878791     0.40570
H2631       H  0.93895652  0.77092357  0.83481495     0.40190
H2632       H  0.92409700  0.74693014  0.86094334     0.35080
C2633       C  0.52732036  0.50057201  0.60753097    -0.26650
C2634       C  0.49920733  0.49933127  0.59214950    -0.14720
C2635       C  0.97165431  0.99833517  0.60920409     0.35910
C2636       C  0.97302735  0.99839739  0.64139217    -0.26100
C2637       C  0.50118827  0.49947921  0.65714783    -0.15340
C2638       C  0.52875069  0.50039611  0.63983161     0.36990
N2639       N  0.55808925  0.50114688  0.65484463    -0.89590
H2640       H  0.54831807  0.50135427  0.59418472     0.18110
H2641       H  0.95168621  0.99759925  0.65414294     0.18100
N2642       N  0.94197673  0.99704726  0.59482900    -0.88620
H2643       H  0.57576835  0.00348767  0.63874260     0.35470
H2644       H  0.56124204  0.97978186  0.66531967     0.40570
H2645       H  0.94353690  0.49679554  0.57088526     0.40190
H2646       H  0.93029698  0.51711955  0.60072942     0.35080
C2647       C  0.97465937  0.98907226  0.89224299    -0.26650
C2648       C  0.50080913  0.49944620  0.90779567    -0.14720
C2649       C  0.52646602  0.50994591  0.89082627     0.35910
C2650       C  0.52520565  0.50974444  0.85863857    -0.26100
C2651       C  0.49895155  0.49956000  0.84285349    -0.15340
C2652       C  0.97335593  0.98902589  0.85993993     0.36990
N2653       N  0.94630934  0.97795902  0.84458716    -0.89590
H2654       H  0.95509908  0.98106044  0.90544159     0.18110
H2655       H  0.54503987  0.51774834  0.84586944     0.18100
N2656       N  0.55443620  0.52002351  0.90523044    -0.88620
H2657       H  0.92942511  0.97180275  0.86055294     0.35470
H2658       H  0.95222858  0.95784459  0.83291104     0.40570
H2659       H  0.55361774  0.51793992  0.92911508     0.40190
H2660       H  0.55727155  0.54336648  0.90030255     0.35080
C2661       C  0.97348851  0.89193651  0.74352144    -0.26650
C2662       C  0.00104155  0.90753664  0.74979173    -0.14720
C2663       C  0.52770428  0.89032096  0.75613563     0.35910
C2664       C  0.52600787  0.85813800  0.75621190    -0.26100
C2665       C  0.99846814  0.84252771  0.74989121    -0.15340
C2666       C  0.97178851  0.85974676  0.74361531     0.36990
N2667       N  0.94312660  0.84473839  0.73696544    -0.89590
H2668       H  0.95296687  0.90492988  0.73856103     0.18110
H2669       H  0.54653489  0.84516116  0.76119041     0.18100
N2670       N  0.55633573  0.90532825  0.76292911    -0.88620
H2671       H  0.92650759  0.86074628  0.73060940     0.35470
H2672       H  0.93529928  0.83478031  0.75741584     0.40570
H2673       H  0.56431345  0.91520561  0.74249802     0.40190
H2674       H  0.57289804  0.88932832  0.76945167     0.35080
C2675       C  0.97343772  0.64185205  0.74456596    -0.26650
C2676       C  0.00119603  0.65754705  0.74951581    -0.14720
C2677       C  0.52818160  0.64042825  0.75466565     0.35910
C2678       C  0.52656450  0.60824331  0.75506421    -0.26100
C2679       C  0.99878948  0.59254212  0.75017850    -0.15340
C2680       C  0.97181146  0.60967437  0.74498361     0.36990
N2681       N  0.94287526  0.59459208  0.73984600    -0.89590
H2682       H  0.95267361  0.65475963  0.74047245     0.18110
H2683       H  0.54733806  0.59534120  0.75912181     0.18100
N2684       N  0.55709568  0.65553452  0.75985222    -0.88620
H2685       H  0.92593877  0.61052747  0.73418864     0.35470
H2686       H  0.93606435  0.58477013  0.76072160     0.40570
H2687       H  0.56392565  0.66537497  0.73899189     0.40190
H2688       H  0.57403614  0.63960627  0.76551666     0.35080
loop_ 
_geom_bond_atom_site_label_1 
_geom_bond_atom_site_label_2 
_geom_bond_distance 
_geom_bond_site_symmetry_2 
_ccdc_geom_bond_type 
O1          V681   1.900       .  S
O1         C2027   1.265       .  A
O2            V9   1.899       .  S
O2         C1356   1.265       .  A
O3            V9   1.894       .  S
O3           C13   1.264       .  A
O4          V681   1.895   1_545  S
O4           C14   1.263       .  A
O5          V682   1.894       .  S
O5         C1358   1.265   1_455  A
O6           V10   1.896       .  S
O6         C1357   1.263       .  A
O7          V682   1.898       .  S
O7          C684   1.264   1_545  A
O8           V10   1.897       .  S
O8           C11   1.264   1_455  A
V9          O673   1.900       .  S
V9          O676   1.895       .  S
V9         V1354   2.084       .  T
V10         O677   1.894       .  S
V10         O679   1.898       .  S
V10        V1353   2.084   1_455  T
C11        O2017   1.265       .  A
C11         C971   1.484       .  S
C12        O1346   1.265   1_455  A
C12         O679   1.264       .  A
C12         C957   1.489       .  S
C13        O1350   1.263       .  A
C13         C310   1.484       .  S
C14        O1349   1.265       .  A
C14         C327   1.484       .  S
O15          V23   1.899       .  S
O15        C1369   1.265   1_455  A
O16          V23   1.900       .  S
O16        C1370   1.263       .  A
O17          V23   1.893       .  S
O17        C1371   1.264   1_455  A
O18          V23   1.895       .  S
O18        C1372   1.263       .  A
O19          V24   1.893       .  S
O19          C28   1.264       .  A
O20          V24   1.897       .  S
O20          C27   1.264       .  A
O21          V24   1.896       .  S
O21          C26   1.262       .  A
O22          V24   1.897       .  S
O22          C25   1.264       .  A
V23        V1368   2.085   1_455  T
V24        V1367   2.085       .  T
C25        O1359   1.265       .  A
C25         C268   1.489       .  S
C26        O1360   1.263       .  A
C26         C254   1.467       .  S
C27        O1361   1.264       .  A
C27         C313   1.484       .  S
C28        O1362   1.263       .  A
C28         C324   1.483       .  S
O29          V37   1.904       .  S
O29          C39   1.266       .  A
O30          V37   1.906       .  S
O30          C40   1.267       .  A
O31          V37   1.899       .  S
O31          C41   1.262       .  A
O32         V709   1.899   1_545  S
O32          C42   1.264       .  A
O33         V710   1.905   1_545  S
O33          C42   1.267       .  A
O34          V38   1.905       .  S
O34          C41   1.265       .  A
O35          V38   1.893       .  S
O35          C40   1.263       .  A
O36          V38   1.893       .  S
O36          C39   1.262       .  A
V37         O704   1.899       .  S
V37          V38   2.085       .  T
V38         O705   1.905       .  S
C39         C212   1.484       .  S
C40         C198   1.489       .  S
C41         C226   1.471       .  S
C42         C240   1.489       .  S
O43          V51   1.900       .  S
O43          C53   1.264       .  A
O44          V51   1.898       .  S
O44          C54   1.263       .  A
O45          V51   1.900       .  S
O45          C55   1.263       .  A
O46          V51   1.905       .  S
O46          C56   1.265       .  A
O47          V52   1.901       .  S
O47          C56   1.265       .  A
O48          V52   1.905       .  S
O48          C55   1.264       .  A
O49          V52   1.902       .  S
O49          C54   1.264       .  A
O50          V52   1.899       .  S
O50          C53   1.264       .  A
V51          V52   2.087       .  T
C53         C184   1.474       .  S
C54         C170   1.474       .  S
C55         C229   1.471       .  S
C56         C243   1.489       .  S
O57          V65   1.900       .  S
O57         C739   1.263   1_655  A
O58        V1745   1.900   1_554  S
O58        C2084   1.263       .  A
O59        V1409   1.891       .  S
O59        C1077   1.262       .  A
O60         V401   1.893   1_454  S
O60         C742   1.262       .  A
O61         V402   1.901   1_455  S
O61         C406   1.266   1_545  A
O62        V1410   1.904   1_556  S
O62          C69   1.267   1_545  A
O63          V66   1.897       .  S
O63          C68   1.262   1_545  A
O64        V1746   1.897       .  S
O64        C1411   1.263   1_545  A
V65        O1738   1.900       .  S
V65        O1403   1.891       .  S
V65         O396   1.893   1_655  S
V65        V1074   2.087       .  T
V66         O397   1.901   1_655  S
V66        O1406   1.904   1_554  S
V66        O1744   1.897   1_654  S
V66        V1073   2.087   1_544  T
C67         O729   1.263   1_455  A
C67        O1408   1.263   1_565  A
C67         C296   1.468       .  S
C68        O2074   1.263       .  A
C68         C282   1.466       .  S
C69        O1067   1.262       .  A
C69         C817   1.488   1_556  S
C70         O732   1.262       .  A
C70         O397   1.266   1_565  A
C70         C831   1.487   1_554  S
O71          V79   1.900       .  S
O71          C81   1.263       .  A
O72         V415   1.900   1_554  S
O72          C82   1.266       .  A
O73          V79   1.898       .  S
O73         C419   1.265       .  A
O74        V1759   1.899   1_455  S
O74          C84   1.264       .  A
O75        V1760   1.899       .  S
O75         C420   1.265       .  A
O76          V80   1.901       .  S
O76          C83   1.265       .  A
O77        V1424   1.896   1_554  S
O77        C1426   1.263   1_455  A
O78         V416   1.896       .  S
O78          C81   1.262       .  A
V79         O408   1.900       .  S
V79        O1754   1.899       .  S
V79         V416   2.085       .  T
V80        O1755   1.899       .  S
V80        O1421   1.896   1_556  S
V80         O414   1.896       .  S
V80         V415   2.085       .  T
C81         C271   1.466       .  S
C82        O1421   1.263       .  A
C82         C257   1.487       .  S
C83         O409   1.265   1_556  A
C83         C114   1.491       .  S
C84         O411   1.265       .  A
C84         C131   1.483       .  S
O85          V93   1.900       .  S
O85         C767   1.264       .  A
O86         V429   1.900       .  S
O86         C768   1.263       .  A
O87          V93   1.892       .  S
O87        C1105   1.262       .  A
O88         V429   1.893   1_556  S
O88         C770   1.263   1_556  A
O89         V430   1.900       .  S
O89         C434   1.266       .  A
O90          V94   1.905   1_556  S
O90          C97   1.268   1_556  A
O91          V94   1.898       .  S
O91          C96   1.262       .  A
O92         V430   1.897       .  S
O92          C95   1.263       .  A
V93         O422   1.900       .  S
V93         O424   1.893       .  S
V93        V1102   2.085   1_545  T
V94         O425   1.900       .  S
V94         O428   1.897   1_554  S
V94        V1101   2.085       .  T
C95         O757   1.264       .  A
C95         C215   1.468       .  S
C96         O758   1.263       .  A
C96         C201   1.467       .  S
C97        O1095   1.262       .  A
C97         C142   1.489       .  S
C98         O760   1.263   1_554  A
C98         O425   1.266       .  A
C98         C156   1.487       .  S
O99         V107   1.901       .  S
O99         C109   1.265       .  A
O100        V443   1.900   1_554  S
O100        C110   1.265       .  A
O101        V107   1.897       .  S
O101        C447   1.265       .  A
O102        V443   1.900   1_554  S
O102        C112   1.265   1_554  A
O103        V444   1.898       .  S
O103        C448   1.265       .  A
O104        V108   1.902       .  S
O104        C111   1.265       .  A
O105        V108   1.898   1_554  S
O105        C110   1.263       .  A
O106        V444   1.898       .  S
O106        C109   1.264       .  A
V107        O436   1.900       .  S
V107        O438   1.900       .  S
V107        V444   2.085       .  T
V108        O439   1.898       .  S
V108        O442   1.898       .  S
V108        V443   2.085       .  T
C109        C187   1.478       .  S
C110        C173   1.481       .  S
C111        O437   1.265       .  A
C111        C117   1.491       .  S
C112        O439   1.265       .  A
C112        C128   1.483   1_556  S
C113        C114   1.406   1_554  A
C113        C118   1.406       .  A
C113        H120   1.083       .  S
C114        C451   1.416       .  A
C115        C116   1.406       .  A
C115        C450   1.416       .  A
C115        N122   1.438       .  S
C116        C453   1.407       .  A
C116        H121   1.083       .  S
C117        C118   1.416   1_556  A
C117        C452   1.407       .  A
C118        N119   1.438       .  S
N119        H459   1.046       .  S
N119        H460   1.045   1_554  S
N122        H461   1.045       .  S
N122        H462   1.046       .  S
H123        N455   1.046       .  S
H124        N455   1.045       .  S
H125        N458   1.045   1_554  S
H126        N458   1.046       .  S
C127        C132   1.405       .  A
C127        C464   1.405       .  A
C127        H134   1.084       .  S
C128        C129   1.413       .  A
C128        C463   1.405   1_554  A
C129        C130   1.405       .  A
C129        N136   1.438       .  S
C130        C131   1.404   1_554  A
C130        H135   1.084       .  S
C131        C468   1.414       .  A
C132        C467   1.414       .  A
C132        N133   1.438       .  S
N133        H137   1.046       .  S
N133        H138   1.045       .  S
N136        H139   1.046       .  S
N136        H140   1.046       .  S
C141        C146   1.405       .  A
C141        C478   1.404       .  A
C141        H148   1.083       .  S
C142        C477   1.404   1_554  A
C142        C815   1.418       .  A
C143        C144   1.405       .  A
C143        C814   1.418       .  A
C143        N150   1.438       .  S
C144        C817   1.404   1_545  A
C144        H149   1.083       .  S
C145        C741   1.488   1_554  S
C145        C816   1.404       .  A
C145        C482   1.417   1_554  A
C146        C481   1.417       .  A
C146        N147   1.438       .  S
N147        H151   1.046       .  S
N147        H152   1.045       .  S
N150        H153   1.045   1_554  S
N150        H154   1.046       .  S
C155        C156   1.404       .  A
C155        C160   1.404       .  A
C155        H162   1.083       .  S
C156       C1165   1.417   1_554  A
C157        C158   1.404       .  A
C157       C1164   1.417       .  A
C157        N164   1.438       .  S
C158       C1167   1.404   1_545  A
C158        H163   1.083       .  S
C159        C742   1.487   1_556  S
C159        C160   1.417   1_556  A
C159       C1166   1.404       .  A
C160        N161   1.438       .  S
N161        H165   1.046       .  S
N161        H166   1.045   1_554  S
N164        H167   1.045       .  S
N164        H168   1.046       .  S
C169        C170   1.401       .  A
C169        C174   1.407       .  A
C169        H176   1.084       .  S
C170        C171   1.410       .  A
C171        C172   1.405       .  A
C171        N178   1.437       .  S
C172        C173   1.404       .  A
C172        H177   1.084       .  S
C173        C174   1.415       .  A
C174        N175   1.438       .  S
N175        H179   1.046       .  S
N175        H180   1.045       .  S
N178        H181   1.045       .  S
N178        H182   1.045       .  S
C183        C184   1.403       .  A
C183        C188   1.405       .  A
C183        H190   1.084       .  S
C184        C185   1.418       .  A
C185        C186   1.401       .  A
C185        N192   1.438       .  S
C186        C187   1.403       .  A
C186        H191   1.084       .  S
C187        C188   1.412       .  A
C188        N189   1.438       .  S
N189        H193   1.046       .  S
N189        H194   1.046       .  S
N192        H195   1.042       .  S
N192        H196   1.046       .  S
C197        C198   1.407       .  A
C197        C202   1.402       .  A
C197        H204   1.084       .  S
C198        C871   1.419       .  A
C199        C200   1.405       .  A
C199        C870   1.419   1_545  A
C199        N206   1.438       .  S
C200        C873   1.398       .  A
C200        H205   1.084       .  S
C201        C202   1.413       .  A
C201        C872   1.398       .  A
C202        N203   1.439       .  S
N203        H207   1.046       .  S
N203        H208   1.043       .  S
N206        H209   1.046       .  S
N206        H210   1.046       .  S
C211        C212   1.406       .  A
C211        C216   1.406       .  A
C211        H218   1.084       .  S
C212        C885   1.418       .  A
C213        C214   1.405       .  A
C213        C884   1.418       .  A
C213        N220   1.438       .  S
C214        C887   1.398       .  A
C214        H219   1.084       .  S
C215        C216   1.407       .  A
C215        C886   1.398       .  A
C216        N217   1.438       .  S
N217        H221   1.046       .  S
N217        H222   1.046       .  S
N220        H223   1.045       .  S
N220        H224   1.046       .  S
C225        C226   1.402       .  A
C225        C230   1.406       .  A
C225        H232   1.084       .  S
C226        C227   1.417       .  A
C227        C228   1.404       .  A
C227        N234   1.439       .  S
C228        C229   1.401       .  A
C228        H233   1.084       .  S
C229        C230   1.407       .  A
C230        N231   1.436       .  S
N231        H235   1.046       .  S
N231        H236   1.046       .  S
N234        H237   1.043       .  S
N234        H238   1.045       .  S
C239        C240   1.405       .  A
C239        C244   1.408       .  A
C239        H246   1.084       .  S
C240        C241   1.416       .  A
C241        C242   1.407       .  A
C241        N248   1.438       .  S
C242        C243   1.405       .  A
C242        H247   1.084       .  S
C243        C244   1.415       .  A
C244        N245   1.438       .  S
N245        H249   1.046       .  S
N245        H250   1.045       .  S
N248        H251   1.045       .  S
N248        H252   1.046       .  S
C253        C258   1.405       .  A
C253       C1598   1.399       .  A
C253        H260   1.084       .  S
C254        C255   1.413       .  A
C254       C1597   1.399       .  A
C255        C256   1.401       .  A
C255        N262   1.440       .  S
C256        C257   1.407       .  A
C256        H261   1.084       .  S
C257       C1602   1.418       .  A
C258       C1601   1.418   1_455  A
C258        N259   1.438       .  S
N259        H263   1.046       .  S
N259        H264   1.045   1_455  S
N262        H265   1.043       .  S
N262        H266   1.046       .  S
C267        C272   1.400       .  A
C267       C1612   1.408   1_455  A
C267        H274   1.084       .  S
C268        C269   1.418       .  A
C268       C1611   1.408       .  A
C269        C270   1.405       .  A
C269        N276   1.438       .  S
C270        C271   1.398       .  A
C270        H275   1.084       .  S
C271       C1616   1.413       .  A
C272       C1615   1.413       .  A
C272        N273   1.439       .  S
N273        H277   1.046       .  S
N273        H278   1.043       .  S
N276        H279   1.046       .  S
N276        H280   1.046       .  S
C281        C282   1.399   1_445  A
C281        C286   1.406       .  A
C281        H288   1.084       .  S
C282       C2299   1.412       .  A
C283        C284   1.401       .  A
C283       C2298   1.412       .  A
C283        N290   1.439       .  S
C284       C2301   1.408       .  A
C284        H289   1.084       .  S
C285        C684   1.489       .  S
C285        C286   1.419   1_565  A
C285       C2300   1.408   1_455  A
C286        N287   1.438       .  S
N287        H963   1.046       .  S
N287        H964   1.046   1_545  S
N290        H965   1.043       .  S
N290        H966   1.046       .  S
H291        N959   1.046       .  S
H292        N959   1.046       .  S
H293        N962   1.043       .  S
H294        N962   1.046   1_545  S
C295        C300   1.405       .  A
C295       C2312   1.400       .  A
C295        H302   1.084       .  S
C296        C297   1.414   1_565  A
C296       C2311   1.400   1_455  A
C297        C298   1.400       .  A
C297        N304   1.439       .  S
C298        C299   1.406   1_445  A
C298        H303   1.084       .  S
C299        C683   1.484       .  S
C299       C2316   1.415       .  A
C300       C2315   1.415       .  A
C300        N301   1.438       .  S
N301        H305   1.046       .  S
N301        H306   1.046       .  S
N304        H307   1.043       .  S
N304        H308   1.046       .  S
C309        C310   1.405       .  A
C309        C314   1.403       .  A
C309        H316   1.083       .  S
C310       C1655   1.414       .  A
C311        C312   1.403       .  A
C311       C1654   1.414       .  A
C311        N318   1.438       .  S
C312       C1657   1.405   1_455  A
C312        H317   1.083       .  S
C313        C314   1.415       .  A
C313       C1656   1.405       .  A
C314        N315   1.438       .  S
N315        H319   1.046       .  S
N315        H320   1.045       .  S
N318        H321   1.045       .  S
N318        H322   1.046       .  S
C323        C324   1.405       .  A
C323        C328   1.403       .  A
C323        H330   1.083       .  S
C324       C1669   1.415       .  A
C325        C326   1.403       .  A
C325       C1668   1.415       .  A
C325        N332   1.438       .  S
C326       C1671   1.405   1_455  A
C326        H331   1.083       .  S
C327        C328   1.415       .  A
C327       C1670   1.405       .  A
C328        N329   1.438       .  S
N329        H333   1.046       .  S
N329        H334   1.045       .  S
N332        H335   1.045       .  S
N332        H336   1.046       .  S
O337       V1017   1.900       .  S
O337       C2363   1.265       .  A
O338        V345   1.899       .  S
O338       C1692   1.265       .  A
O339        V345   1.894       .  S
O339        C349   1.264       .  A
O340       V1017   1.895   1_545  S
O340        C350   1.263       .  A
O341       V1018   1.894       .  S
O341       C1694   1.265   1_455  A
O342        V346   1.896       .  S
O342       C1693   1.263       .  A
O343       V1018   1.898       .  S
O343       C1020   1.264   1_545  A
O344        V346   1.897       .  S
O344        C347   1.264   1_455  A
V345       O1009   1.900       .  S
V345       O1012   1.895       .  S
V345       V1690   2.084       .  T
V346       O1013   1.894       .  S
V346       O1015   1.898       .  S
V346       V1689   2.084   1_455  T
C347       O2353   1.265       .  A
C347       C1307   1.484       .  S
C348       O1682   1.265   1_455  A
C348       O1015   1.264       .  A
C348       C1293   1.489       .  S
C349       O1686   1.263       .  A
C349        C646   1.484       .  S
C350       O1685   1.265       .  A
C350        C663   1.484       .  S
O351        V359   1.899       .  S
O351       C1705   1.265   1_455  A
O352        V359   1.900       .  S
O352       C1706   1.263       .  A
O353        V359   1.893       .  S
O353       C1707   1.264   1_455  A
O354        V359   1.895       .  S
O354       C1708   1.263       .  A
O355        V360   1.893       .  S
O355        C364   1.264       .  A
O356        V360   1.897       .  S
O356        C363   1.264       .  A
O357        V360   1.896       .  S
O357        C362   1.262       .  A
O358        V360   1.897       .  S
O358        C361   1.264       .  A
V359       V1704   2.085   1_455  T
V360       V1703   2.085       .  T
C361       O1695   1.265       .  A
C361        C604   1.489       .  S
C362       O1696   1.263       .  A
C362        C590   1.467       .  S
C363       O1697   1.264       .  A
C363        C649   1.484       .  S
C364       O1698   1.263       .  A
C364        C660   1.483       .  S
O365        V373   1.904       .  S
O365        C375   1.266       .  A
O366        V373   1.906       .  S
O366        C376   1.267       .  A
O367        V373   1.899       .  S
O367        C377   1.262       .  A
O368       V1045   1.899   1_545  S
O368        C378   1.264       .  A
O369       V1046   1.905   1_545  S
O369        C378   1.267       .  A
O370        V374   1.905       .  S
O370        C377   1.265       .  A
O371        V374   1.893       .  S
O371        C376   1.263       .  A
O372        V374   1.893       .  S
O372        C375   1.262       .  A
V373       O1040   1.899       .  S
V373        V374   2.085       .  T
V374       O1041   1.905       .  S
C375        C548   1.484       .  S
C376        C534   1.489       .  S
C377        C562   1.471       .  S
C378        C576   1.489       .  S
O379        V387   1.900       .  S
O379        C389   1.264       .  A
O380        V387   1.898       .  S
O380        C390   1.263       .  A
O381        V387   1.900       .  S
O381        C391   1.263       .  A
O382        V387   1.905       .  S
O382        C392   1.265       .  A
O383        V388   1.901       .  S
O383        C392   1.265       .  A
O384        V388   1.905       .  S
O384        C391   1.264       .  A
O385        V388   1.902       .  S
O385        C390   1.264       .  A
O386        V388   1.899       .  S
O386        C389   1.264       .  A
V387        V388   2.087       .  T
C389        C520   1.474       .  S
C390        C506   1.474       .  S
C391        C565   1.471       .  S
C392        C579   1.489       .  S
O393        V401   1.900       .  S
O393       C1075   1.263   1_655  A
O394       V1409   1.900       .  S
O394       C2420   1.263       .  A
O395       V1745   1.891       .  S
O395        C741   1.262       .  A
O396       C1078   1.262       .  A
O398       V1746   1.904       .  S
O398        C405   1.267   1_545  A
O399        V402   1.897       .  S
O399        C404   1.262   1_545  A
O400       V1410   1.897   1_556  S
O400       C1747   1.263   1_545  A
V401       O1402   1.900   1_556  S
V401       O1739   1.891       .  S
V401        V738   2.087   1_556  T
V402       O1742   1.904       .  S
V402       O1408   1.897   1_655  S
V402        V737   2.087   1_545  T
C403       O1065   1.263   1_455  A
C403       O1744   1.263   1_565  A
C403        C632   1.468       .  S
C404       O2410   1.263       .  A
C404        C618   1.466       .  S
C405        O731   1.262       .  A
C405       C1153   1.488       .  S
C406       O1068   1.262       .  A
C406       C1167   1.487       .  S
O407        V415   1.900       .  S
O407        C417   1.263       .  A
O408        C418   1.266       .  A
O409        V415   1.898   1_554  S
O410       V1423   1.899   1_455  S
O410        C420   1.264       .  A
O411       V1424   1.899       .  S
O412        V416   1.901       .  S
O412        C419   1.265       .  A
O413       V1760   1.896       .  S
O413       C1762   1.263   1_455  A
O414        C417   1.262       .  A
V415       O1418   1.899       .  S
V416       O1419   1.899       .  S
V416       O1757   1.896       .  S
C417        C607   1.466       .  S
C418       O1757   1.263       .  A
C418        C593   1.487       .  S
C419        C450   1.491       .  S
C420        C467   1.483       .  S
O421        V429   1.900   1_556  S
O421       C1103   1.264       .  A
O422       C1104   1.263       .  A
O423        V429   1.892       .  S
O423        C769   1.262       .  A
O424       C1106   1.263       .  A
O426        V430   1.905       .  S
O426        C433   1.268       .  A
O427        V430   1.898       .  S
O427        C432   1.262       .  A
O428        C431   1.263       .  A
V429        V766   2.085   1_545  T
V430        V765   2.085       .  T
C431       O1093   1.264       .  A
C431        C551   1.468       .  S
C432       O1094   1.263       .  A
C432        C537   1.467       .  S
C433        O759   1.262       .  A
C433        C478   1.489       .  S
C434       O1096   1.263       .  A
C434        C492   1.487       .  S
O435        V443   1.901       .  S
O435        C445   1.265       .  A
O436        C446   1.265       .  A
O437        V443   1.897       .  S
O438        C448   1.265       .  A
O440        V444   1.902       .  S
O440        C447   1.265       .  A
O441        V444   1.898       .  S
O441        C446   1.263       .  A
O442        C445   1.264       .  A
C445        C523   1.478       .  S
C446        C509   1.481       .  S
C447        C453   1.491       .  S
C448        C464   1.483       .  S
C449        C450   1.406       .  A
C449        C454   1.406       .  A
C449        H456   1.083       .  S
C451        C452   1.406       .  A
C451        N458   1.438       .  S
C452        H457   1.083       .  S
C453        C454   1.416       .  A
C454        N455   1.438       .  S
C463        C468   1.405       .  A
C463        H470   1.084       .  S
C464        C465   1.413       .  A
C465        C466   1.405       .  A
C465        N472   1.438       .  S
C466        C467   1.404       .  A
C466        H471   1.084       .  S
C468        N469   1.438       .  S
N469        H473   1.046       .  S
N469        H474   1.045       .  S
N472        H475   1.046       .  S
N472        H476   1.046       .  S
C477        C482   1.405       .  A
C477        H484   1.083       .  S
C478       C1151   1.418       .  A
C479       C1150   1.418       .  A
C479        C480   1.405       .  A
C479        N486   1.438       .  S
C480       C1153   1.404   1_545  A
C480        H485   1.083       .  S
C481       C1077   1.488       .  S
C481       C1152   1.404       .  A
C482        N483   1.438       .  S
N483        H487   1.046       .  S
N483        H488   1.045   1_556  S
N486        H489   1.045       .  S
N486        H490   1.046       .  S
C491        C492   1.404       .  A
C491        C496   1.404       .  A
C491        H498   1.083       .  S
C492        C829   1.417       .  A
C493        C828   1.417   1_556  A
C493        C494   1.404       .  A
C493        N500   1.438       .  S
C494        C831   1.404   1_545  A
C494        H499   1.083       .  S
C495       C1078   1.487       .  S
C495        C830   1.404       .  A
C495        C496   1.417       .  A
C496        N497   1.438       .  S
N497        H501   1.046       .  S
N497        H502   1.045       .  S
N500        H503   1.045   1_556  S
N500        H504   1.046       .  S
C505        C506   1.401       .  A
C505        C510   1.407       .  A
C505        H512   1.084       .  S
C506        C507   1.410       .  A
C507        C508   1.405       .  A
C507        N514   1.437       .  S
C508        C509   1.404       .  A
C508        H513   1.084       .  S
C509        C510   1.415       .  A
C510        N511   1.438       .  S
N511        H515   1.046       .  S
N511        H516   1.045       .  S
N514        H517   1.045       .  S
N514        H518   1.045       .  S
C519        C520   1.403       .  A
C519        C524   1.405       .  A
C519        H526   1.084       .  S
C520        C521   1.418       .  A
C521        C522   1.401       .  A
C521        N528   1.438       .  S
C522        C523   1.403       .  A
C522        H527   1.084       .  S
C523        C524   1.412       .  A
C524        N525   1.438       .  S
N525        H529   1.046       .  S
N525        H530   1.046       .  S
N528        H531   1.042       .  S
N528        H532   1.046       .  S
C533        C534   1.407       .  A
C533        C538   1.402       .  A
C533        H540   1.084       .  S
C534       C1207   1.419       .  A
C535       C1206   1.419   1_545  A
C535        C536   1.405       .  A
C535        N542   1.438       .  S
C536       C1209   1.398       .  A
C536        H541   1.084       .  S
C537       C1208   1.398       .  A
C537        C538   1.413       .  A
C538        N539   1.439       .  S
N539        H543   1.046       .  S
N539        H544   1.043       .  S
N542        H545   1.046       .  S
N542        H546   1.046       .  S
C547        C548   1.406       .  A
C547        C552   1.406       .  A
C547        H554   1.084       .  S
C548       C1221   1.418       .  A
C549       C1220   1.418       .  A
C549        C550   1.405       .  A
C549        N556   1.438       .  S
C550       C1223   1.398       .  A
C550        H555   1.084       .  S
C551       C1222   1.398       .  A
C551        C552   1.407       .  A
C552        N553   1.438       .  S
N553        H557   1.046       .  S
N553        H558   1.046       .  S
N556        H559   1.045       .  S
N556        H560   1.046       .  S
C561        C562   1.402       .  A
C561        C566   1.406       .  A
C561        H568   1.084       .  S
C562        C563   1.417       .  A
C563        C564   1.404       .  A
C563        N570   1.439       .  S
C564        C565   1.401       .  A
C564        H569   1.084       .  S
C565        C566   1.407       .  A
C566        N567   1.436       .  S
N567        H571   1.046       .  S
N567        H572   1.046       .  S
N570        H573   1.043       .  S
N570        H574   1.045       .  S
C575        C576   1.405       .  A
C575        C580   1.408       .  A
C575        H582   1.084       .  S
C576        C577   1.416       .  A
C577        C578   1.407       .  A
C577        N584   1.438       .  S
C578        C579   1.405       .  A
C578        H583   1.084       .  S
C579        C580   1.415       .  A
C580        N581   1.438       .  S
N581        H585   1.046       .  S
N581        H586   1.045       .  S
N584        H587   1.045       .  S
N584        H588   1.046       .  S
C589       C1934   1.399       .  A
C589        C594   1.405       .  A
C589        H596   1.084       .  S
C590       C1933   1.399       .  A
C590        C591   1.413       .  A
C591        C592   1.401       .  A
C591        N598   1.440       .  S
C592        C593   1.407       .  A
C592        H597   1.084       .  S
C593       C1938   1.418       .  A
C594       C1937   1.418   1_455  A
C594        N595   1.438       .  S
N595        H599   1.046       .  S
N595        H600   1.045   1_455  S
N598        H601   1.043       .  S
N598        H602   1.046       .  S
C603       C1948   1.408   1_455  A
C603        C608   1.400       .  A
C603        H610   1.084       .  S
C604       C1947   1.408       .  A
C604        C605   1.418       .  A
C605        C606   1.405       .  A
C605        N612   1.438       .  S
C606        C607   1.398       .  A
C606        H611   1.084       .  S
C607       C1952   1.413       .  A
C608       C1951   1.413       .  A
C608        N609   1.439       .  S
N609        H613   1.046       .  S
N609        H614   1.043       .  S
N612        H615   1.046       .  S
N612        H616   1.046       .  S
C617        C618   1.399   1_445  A
C617        C622   1.406       .  A
C617        H624   1.084       .  S
C618       C2635   1.412       .  A
C619       C2634   1.412       .  A
C619        C620   1.401       .  A
C619        N626   1.439       .  S
C620       C2637   1.408       .  A
C620        H625   1.084       .  S
C621       C1020   1.489       .  S
C621       C2636   1.408   1_455  A
C621        C622   1.419   1_565  A
C622        N623   1.438       .  S
N623       H1299   1.046       .  S
N623       H1300   1.046   1_545  S
N626       H1301   1.043       .  S
N626       H1302   1.046       .  S
H627       N1295   1.046       .  S
H628       N1295   1.046       .  S
H629       N1298   1.043       .  S
H630       N1298   1.046   1_545  S
C631       C2648   1.400       .  A
C631        C636   1.405       .  A
C631        H638   1.084       .  S
C632       C2647   1.400   1_455  A
C632        C633   1.414   1_565  A
C633        C634   1.400       .  A
C633        N640   1.439       .  S
C634        C635   1.406   1_445  A
C634        H639   1.084       .  S
C635       C1019   1.484       .  S
C635       C2652   1.415       .  A
C636       C2651   1.415       .  A
C636        N637   1.438       .  S
N637        H641   1.046       .  S
N637        H642   1.046       .  S
N640        H643   1.043       .  S
N640        H644   1.046       .  S
C645        C646   1.405       .  A
C645        C650   1.403       .  A
C645        H652   1.083       .  S
C646       C1991   1.414       .  A
C647       C1990   1.414       .  A
C647        C648   1.403       .  A
C647        N654   1.438       .  S
C648       C1993   1.405   1_455  A
C648        H653   1.083       .  S
C649       C1992   1.405       .  A
C649        C650   1.415       .  A
C650        N651   1.438       .  S
N651        H655   1.046       .  S
N651        H656   1.045       .  S
N654        H657   1.045       .  S
N654        H658   1.046       .  S
C659        C660   1.405       .  A
C659        C664   1.403       .  A
C659        H666   1.083       .  S
C660       C2005   1.415       .  A
C661       C2004   1.415       .  A
C661        C662   1.403       .  A
C661        N668   1.438       .  S
C662       C2007   1.405   1_455  A
C662        H667   1.083       .  S
C663       C2006   1.405       .  A
C663        C664   1.415       .  A
C664        N665   1.438       .  S
N665        H669   1.046       .  S
N665        H670   1.045       .  S
N668        H671   1.045       .  S
N668        H672   1.046       .  S
O673       C1355   1.265       .  A
O674        V681   1.899       .  S
O674       C2028   1.265       .  A
O675        V681   1.894       .  S
O675        C685   1.264       .  A
O676        C686   1.263       .  A
O677       C2030   1.265   1_455  A
O678        V682   1.896   1_565  S
O678       C2029   1.263       .  A
O680        V682   1.897       .  S
O680        C683   1.264   1_445  A
V681       V2026   2.084   1_565  T
V682       V2025   2.084   1_445  T
C683       O1345   1.265       .  A
C684       O2018   1.265   1_455  A
C685       O2022   1.263       .  A
C685        C982   1.484       .  S
C686       O2021   1.265       .  A
C686        C999   1.484       .  S
O687        V695   1.899       .  S
O687       C2041   1.265   1_455  A
O688        V695   1.900       .  S
O688       C2042   1.263       .  A
O689        V695   1.893       .  S
O689       C2043   1.264   1_455  A
O690        V695   1.895       .  S
O690       C2044   1.263       .  A
O691        V696   1.893       .  S
O691        C700   1.264       .  A
O692        V696   1.897       .  S
O692        C699   1.264       .  A
O693        V696   1.896       .  S
O693        C698   1.262       .  A
O694        V696   1.897       .  S
O694        C697   1.264       .  A
V695       V2040   2.085   1_455  T
V696       V2039   2.085       .  T
C697       O2031   1.265       .  A
C697        C940   1.489       .  S
C698       O2032   1.263       .  A
C698        C926   1.467       .  S
C699       O2033   1.264       .  A
C699        C985   1.484       .  S
C700       O2034   1.263       .  A
C700        C996   1.483       .  S
O701        V709   1.904       .  S
O701        C711   1.266       .  A
O702        V709   1.906       .  S
O702        C712   1.267       .  A
O703        V709   1.899       .  S
O703        C713   1.262       .  A
O704        C714   1.264       .  A
O705        C714   1.267       .  A
O706        V710   1.905       .  S
O706        C713   1.265       .  A
O707        V710   1.893       .  S
O707        C712   1.263       .  A
O708        V710   1.893   1_545  S
O708        C711   1.262   1_545  A
V709        V710   2.085       .  T
C711        C884   1.484   1_565  S
C712        C870   1.489       .  S
C713        C898   1.471       .  S
C714        C912   1.489       .  S
O715        V723   1.900       .  S
O715        C725   1.264       .  A
O716        V723   1.898       .  S
O716        C726   1.263       .  A
O717        V723   1.900       .  S
O717        C727   1.263       .  A
O718        V723   1.905       .  S
O718        C728   1.265       .  A
O719        V724   1.901       .  S
O719        C728   1.265       .  A
O720        V724   1.905       .  S
O720        C727   1.264       .  A
O721        V724   1.902       .  S
O721        C726   1.264       .  A
O722        V724   1.899       .  S
O722        C725   1.264       .  A
V723        V724   2.087       .  T
C725        C856   1.474       .  S
C726        C842   1.474       .  S
C727        C901   1.471       .  S
C728        C915   1.489       .  S
O729        V737   1.900       .  S
O730       V2417   1.900   1_554  S
O730       C1412   1.263       .  A
O731       V2081   1.891       .  S
O732       V1073   1.893   1_454  S
O733       V1074   1.901   1_455  S
O733       C1078   1.266       .  A
O734       V2082   1.904   1_556  S
O734        C741   1.267       .  A
O735        V738   1.897       .  S
O735        C740   1.262       .  A
O736       V2418   1.897       .  S
O736       C2083   1.263       .  A
V737       O2410   1.900       .  S
V737       O2075   1.891       .  S
V737       O1068   1.893   1_655  S
V738       O1069   1.901   1_655  S
V738       O2078   1.904   1_554  S
V738       O2416   1.897   1_654  S
C739       O2080   1.263       .  A
C739        C968   1.468       .  S
C740       O1402   1.263       .  A
C740        C954   1.466       .  S
C742       O1069   1.266       .  A
O743        V751   1.900       .  S
O743        C753   1.263       .  A
O744       V1087   1.900   1_554  S
O744        C754   1.266       .  A
O745        V751   1.898       .  S
O745       C1091   1.265       .  A
O746       V2431   1.899   1_455  S
O746        C756   1.264       .  A
O747       V2432   1.899       .  S
O747       C1092   1.265       .  A
O748        V752   1.901       .  S
O748        C755   1.265       .  A
O749       V2096   1.896   1_554  S
O749       C2098   1.263   1_455  A
O750       V1088   1.896       .  S
O750        C753   1.262       .  A
V751       O1080   1.900       .  S
V751       O2426   1.899       .  S
V751       V1088   2.085       .  T
V752       O2427   1.899       .  S
V752       O2093   1.896   1_556  S
V752       O1086   1.896       .  S
V752       V1087   2.085       .  T
C753        C943   1.466       .  S
C754       O2093   1.263       .  A
C754        C929   1.487       .  S
C755       O1081   1.265   1_556  A
C755        C786   1.491       .  S
C756       O1083   1.265       .  A
C756        C803   1.483       .  S
O757        V765   1.900       .  S
O758       V1101   1.900       .  S
O759        V765   1.892       .  S
O760       V1101   1.893   1_556  S
O761       V1102   1.900       .  S
O761       C1106   1.266   1_565  A
O762        V766   1.905   1_556  S
O762        C769   1.268   1_566  A
O763        V766   1.898       .  S
O763        C768   1.262   1_565  A
O764       V1102   1.897       .  S
O764        C767   1.263   1_565  A
V765       O1094   1.900       .  S
V765       O1096   1.893       .  S
V766       O1097   1.900       .  S
V766       O1100   1.897   1_554  S
C767        C887   1.468       .  S
C768        C873   1.467       .  S
C769        C814   1.489       .  S
C770       O1097   1.266   1_545  A
C770        C828   1.487       .  S
O771        V779   1.901       .  S
O771        C781   1.265       .  A
O772       V1115   1.900   1_554  S
O772        C782   1.265       .  A
O773        V779   1.897       .  S
O773       C1119   1.265       .  A
O774       V1115   1.900   1_554  S
O774        C784   1.265   1_554  A
O775       V1116   1.898       .  S
O775       C1120   1.265       .  A
O776        V780   1.902       .  S
O776        C783   1.265       .  A
O777        V780   1.898   1_554  S
O777        C782   1.263       .  A
O778       V1116   1.898       .  S
O778        C781   1.264       .  A
V779       O1108   1.900       .  S
V779       O1110   1.900       .  S
V779       V1116   2.085       .  T
V780       O1111   1.898       .  S
V780       O1114   1.898       .  S
V780       V1115   2.085       .  T
C781        C859   1.478       .  S
C782        C845   1.481       .  S
C783       O1109   1.265       .  A
C783        C789   1.491       .  S
C784       O1111   1.265       .  A
C784        C800   1.483   1_556  S
C785        C786   1.406   1_554  A
C785        C790   1.406       .  A
C785        H792   1.083       .  S
C786       C1123   1.416       .  A
C787       C1122   1.416       .  A
C787        C788   1.406       .  A
C787        N794   1.438       .  S
C788       C1125   1.407       .  A
C788        H793   1.083       .  S
C789       C1124   1.407       .  A
C789        C790   1.416   1_556  A
C790        N791   1.438       .  S
N791       H1131   1.046       .  S
N791       H1132   1.045   1_554  S
N794       H1133   1.045       .  S
N794       H1134   1.046       .  S
H795       N1127   1.046       .  S
H796       N1127   1.045       .  S
H797       N1130   1.045   1_554  S
H798       N1130   1.046       .  S
C799       C1136   1.405       .  A
C799        C804   1.405       .  A
C799        H806   1.084       .  S
C800       C1135   1.405   1_554  A
C800        C801   1.413       .  A
C801        C802   1.405       .  A
C801        N808   1.438       .  S
C802        C803   1.404   1_554  A
C802        H807   1.084       .  S
C803       C1140   1.414       .  A
C804       C1139   1.414       .  A
C804        N805   1.438       .  S
N805        H809   1.046       .  S
N805        H810   1.045       .  S
N808        H811   1.046       .  S
N808        H812   1.046       .  S
C813       C1150   1.404   1_565  A
C813        C818   1.405       .  A
C813        H820   1.083       .  S
C814       C1149   1.404   1_544  A
C815        C816   1.405       .  A
C815        N822   1.438       .  S
C816        H821   1.083       .  S
C817       C1154   1.417   1_554  A
C818       C1153   1.417       .  A
C818        N819   1.438       .  S
N819        H823   1.046       .  S
N819        H824   1.045       .  S
N822        H825   1.045   1_554  S
N822        H826   1.046       .  S
C827        C828   1.404   1_565  A
C827        C832   1.404       .  A
C827        H834   1.083       .  S
C829        C830   1.404       .  A
C829        N836   1.438       .  S
C830        H835   1.083       .  S
C831        C832   1.417   1_556  A
C832        N833   1.438       .  S
N833        H837   1.046       .  S
N833        H838   1.045   1_554  S
N836        H839   1.045       .  S
N836        H840   1.046       .  S
C841        C842   1.401       .  A
C841        C846   1.407       .  A
C841        H848   1.084       .  S
C842        C843   1.410       .  A
C843        C844   1.405       .  A
C843        N850   1.437       .  S
C844        C845   1.404       .  A
C844        H849   1.084       .  S
C845        C846   1.415       .  A
C846        N847   1.438       .  S
N847        H851   1.046       .  S
N847        H852   1.045       .  S
N850        H853   1.045       .  S
N850        H854   1.045       .  S
C855        C856   1.403       .  A
C855        C860   1.405       .  A
C855        H862   1.084       .  S
C856        C857   1.418       .  A
C857        C858   1.401       .  A
C857        N864   1.438       .  S
C858        C859   1.403       .  A
C858        H863   1.084       .  S
C859        C860   1.412       .  A
C860        N861   1.438       .  S
N861        H865   1.046       .  S
N861        H866   1.046       .  S
N864        H867   1.042       .  S
N864        H868   1.046       .  S
C869        C870   1.407       .  A
C869        C874   1.402       .  A
C869        H876   1.084       .  S
C871        C872   1.405       .  A
C871        N878   1.438       .  S
C872        H877   1.084       .  S
C873        C874   1.413   1_545  A
C874        N875   1.439       .  S
N875        H879   1.046       .  S
N875        H880   1.043       .  S
N878        H881   1.046       .  S
N878        H882   1.046       .  S
C883        C884   1.406   1_565  A
C883        C888   1.406       .  A
C883        H890   1.084       .  S
C885        C886   1.405       .  A
C885        N892   1.438       .  S
C886        H891   1.084       .  S
C887        C888   1.407   1_545  A
C888        N889   1.438       .  S
N889        H893   1.046       .  S
N889        H894   1.046       .  S
N892        H895   1.045       .  S
N892        H896   1.046       .  S
C897        C898   1.402       .  A
C897        C902   1.406       .  A
C897        H904   1.084       .  S
C898        C899   1.417       .  A
C899        C900   1.404       .  A
C899        N906   1.439       .  S
C900        C901   1.401       .  A
C900        H905   1.084       .  S
C901        C902   1.407       .  A
C902        N903   1.436       .  S
N903        H907   1.046       .  S
N903        H908   1.046       .  S
N906        H909   1.043       .  S
N906        H910   1.045       .  S
C911        C912   1.405       .  A
C911        C916   1.408       .  A
C911        H918   1.084       .  S
C912        C913   1.416       .  A
C913        C914   1.407       .  A
C913        N920   1.438       .  S
C914        C915   1.405       .  A
C914        H919   1.084       .  S
C915        C916   1.415       .  A
C916        N917   1.438       .  S
N917        H921   1.046       .  S
N917        H922   1.045       .  S
N920        H923   1.045       .  S
N920        H924   1.046       .  S
C925       C2270   1.399       .  A
C925        C930   1.405       .  A
C925        H932   1.084       .  S
C926       C2269   1.399       .  A
C926        C927   1.413       .  A
C927        C928   1.401       .  A
C927        N934   1.440       .  S
C928        C929   1.407       .  A
C928        H933   1.084       .  S
C929       C2274   1.418       .  A
C930       C2273   1.418   1_455  A
C930        N931   1.438       .  S
N931        H935   1.046       .  S
N931        H936   1.045   1_455  S
N934        H937   1.043       .  S
N934        H938   1.046       .  S
C939       C2284   1.408   1_455  A
C939        C944   1.400       .  A
C939        H946   1.084       .  S
C940       C2283   1.408       .  A
C940        C941   1.418       .  A
C941        C942   1.405       .  A
C941        N948   1.438       .  S
C942        C943   1.398       .  A
C942        H947   1.084       .  S
C943       C2288   1.413       .  A
C944       C2287   1.413       .  A
C944        N945   1.439       .  S
N945        H949   1.046       .  S
N945        H950   1.043       .  S
N948        H951   1.046       .  S
N948        H952   1.046       .  S
C953        C954   1.399   1_455  A
C953        C958   1.406       .  A
C953        H960   1.084       .  S
C954       C1627   1.412       .  A
C955       C1626   1.412       .  A
C955        C956   1.401       .  A
C955        N962   1.439       .  S
C956       C1629   1.408       .  A
C956        H961   1.084       .  S
C957       C1628   1.408   1_455  A
C957        C958   1.419       .  A
C958        N959   1.438       .  S
C967       C1640   1.400       .  A
C967        C972   1.405       .  A
C967        H974   1.084       .  S
C968       C1639   1.400   1_455  A
C968        C969   1.414       .  A
C969        C970   1.400       .  A
C969        N976   1.439       .  S
C970        C971   1.406   1_455  A
C970        H975   1.084       .  S
C971       C1644   1.415       .  A
C972       C1643   1.415       .  A
C972        N973   1.438       .  S
N973        H977   1.046       .  S
N973        H978   1.046       .  S
N976        H979   1.043       .  S
N976        H980   1.046       .  S
C981        C982   1.405       .  A
C981        C986   1.403       .  A
C981        H988   1.083       .  S
C982       C2327   1.414       .  A
C983       C2326   1.414       .  A
C983        C984   1.403       .  A
C983        N990   1.438       .  S
C984       C2329   1.405   1_455  A
C984        H989   1.083       .  S
C985       C2328   1.405       .  A
C985        C986   1.415       .  A
C986        N987   1.438       .  S
N987        H991   1.046       .  S
N987        H992   1.045       .  S
N990        H993   1.045       .  S
N990        H994   1.046       .  S
C995        C996   1.405       .  A
C995       C1000   1.403       .  A
C995       H1002   1.083       .  S
C996       C2341   1.415       .  A
C997       C2340   1.415       .  A
C997        C998   1.403       .  A
C997       N1004   1.438       .  S
C998       C2343   1.405   1_455  A
C998       H1003   1.083       .  S
C999       C2342   1.405       .  A
C999       C1000   1.415       .  A
C1000      N1001   1.438       .  S
N1001      H1005   1.046       .  S
N1001      H1006   1.045       .  S
N1004      H1007   1.045       .  S
N1004      H1008   1.046       .  S
O1009      C1691   1.265       .  A
O1010      V1017   1.899       .  S
O1010      C2364   1.265       .  A
O1011      V1017   1.894       .  S
O1011      C1021   1.264       .  A
O1012      C1022   1.263       .  A
O1013      C2366   1.265   1_455  A
O1014      V1018   1.896   1_565  S
O1014      C2365   1.263       .  A
O1016      V1018   1.897       .  S
O1016      C1019   1.264   1_445  A
V1017      V2362   2.084   1_565  T
V1018      V2361   2.084   1_445  T
C1019      O1681   1.265       .  A
C1020      O2354   1.265   1_455  A
C1021      O2358   1.263       .  A
C1021      C1318   1.484       .  S
C1022      O2357   1.265       .  A
C1022      C1335   1.484       .  S
O1023      V1031   1.899       .  S
O1023      C2377   1.265   1_455  A
O1024      V1031   1.900       .  S
O1024      C2378   1.263       .  A
O1025      V1031   1.893       .  S
O1025      C2379   1.264   1_455  A
O1026      V1031   1.895       .  S
O1026      C2380   1.263       .  A
O1027      V1032   1.893       .  S
O1027      C1036   1.264       .  A
O1028      V1032   1.897       .  S
O1028      C1035   1.264       .  A
O1029      V1032   1.896       .  S
O1029      C1034   1.262       .  A
O1030      V1032   1.897       .  S
O1030      C1033   1.264       .  A
V1031      V2376   2.085   1_455  T
V1032      V2375   2.085       .  T
C1033      O2367   1.265       .  A
C1033      C1276   1.489       .  S
C1034      O2368   1.263       .  A
C1034      C1262   1.467       .  S
C1035      O2369   1.264       .  A
C1035      C1321   1.484       .  S
C1036      O2370   1.263       .  A
C1036      C1332   1.483       .  S
O1037      V1045   1.904       .  S
O1037      C1047   1.266       .  A
O1038      V1045   1.906       .  S
O1038      C1048   1.267       .  A
O1039      V1045   1.899       .  S
O1039      C1049   1.262       .  A
O1040      C1050   1.264       .  A
O1041      C1050   1.267       .  A
O1042      V1046   1.905       .  S
O1042      C1049   1.265       .  A
O1043      V1046   1.893       .  S
O1043      C1048   1.263       .  A
O1044      V1046   1.893   1_545  S
O1044      C1047   1.262   1_545  A
V1045      V1046   2.085       .  T
C1047      C1220   1.484   1_565  S
C1048      C1206   1.489       .  S
C1049      C1234   1.471       .  S
C1050      C1248   1.489       .  S
O1051      V1059   1.900       .  S
O1051      C1061   1.264       .  A
O1052      V1059   1.898       .  S
O1052      C1062   1.263       .  A
O1053      V1059   1.900       .  S
O1053      C1063   1.263       .  A
O1054      V1059   1.905       .  S
O1054      C1064   1.265       .  A
O1055      V1060   1.901       .  S
O1055      C1064   1.265       .  A
O1056      V1060   1.905       .  S
O1056      C1063   1.264       .  A
O1057      V1060   1.902       .  S
O1057      C1062   1.264       .  A
O1058      V1060   1.899       .  S
O1058      C1061   1.264       .  A
V1059      V1060   2.087       .  T
C1061      C1192   1.474       .  S
C1062      C1178   1.474       .  S
C1063      C1237   1.471       .  S
C1064      C1251   1.489       .  S
O1065      V1073   1.900       .  S
O1066      V2081   1.900       .  S
O1066      C1748   1.263       .  A
O1067      V2417   1.891       .  S
O1070      V2418   1.904       .  S
O1070      C1077   1.267       .  A
O1071      V1074   1.897       .  S
O1071      C1076   1.262       .  A
O1072      V2082   1.897   1_556  S
O1072      C2419   1.263       .  A
V1073      O2074   1.900   1_556  S
V1073      O2411   1.891       .  S
V1074      O2414   1.904       .  S
V1074      O2080   1.897   1_655  S
C1075      O2416   1.263       .  A
C1075      C1304   1.468       .  S
C1076      O1738   1.263       .  A
C1076      C1290   1.466       .  S
O1079      V1087   1.900       .  S
O1079      C1089   1.263       .  A
O1080      C1090   1.266       .  A
O1081      V1087   1.898   1_554  S
O1082      V2095   1.899   1_455  S
O1082      C1092   1.264       .  A
O1083      V2096   1.899       .  S
O1084      V1088   1.901       .  S
O1084      C1091   1.265       .  A
O1085      V2432   1.896       .  S
O1085      C2434   1.263   1_455  A
O1086      C1089   1.262       .  A
V1087      O2090   1.899       .  S
V1088      O2091   1.899       .  S
V1088      O2429   1.896       .  S
C1089      C1279   1.466       .  S
C1090      O2429   1.263       .  A
C1090      C1265   1.487       .  S
C1091      C1122   1.491       .  S
C1092      C1139   1.483       .  S
O1093      V1101   1.900   1_556  S
O1095      V1101   1.892       .  S
O1098      V1102   1.905       .  S
O1098      C1105   1.268   1_565  A
O1099      V1102   1.898       .  S
O1099      C1104   1.262   1_565  A
O1100      C1103   1.263   1_565  A
C1103      C1223   1.468       .  S
C1104      C1209   1.467       .  S
C1105      C1150   1.489       .  S
C1106      C1164   1.487       .  S
O1107      V1115   1.901       .  S
O1107      C1117   1.265       .  A
O1108      C1118   1.265       .  A
O1109      V1115   1.897       .  S
O1110      C1120   1.265       .  A
O1112      V1116   1.902       .  S
O1112      C1119   1.265       .  A
O1113      V1116   1.898       .  S
O1113      C1118   1.263       .  A
O1114      C1117   1.264       .  A
C1117      C1195   1.478       .  S
C1118      C1181   1.481       .  S
C1119      C1125   1.491       .  S
C1120      C1136   1.483       .  S
C1121      C1122   1.406       .  A
C1121      C1126   1.406       .  A
C1121      H1128   1.083       .  S
C1123      C1124   1.406       .  A
C1123      N1130   1.438       .  S
C1124      H1129   1.083       .  S
C1125      C1126   1.416       .  A
C1126      N1127   1.438       .  S
C1135      C1140   1.405       .  A
C1135      H1142   1.084       .  S
C1136      C1137   1.413       .  A
C1137      C1138   1.405       .  A
C1137      N1144   1.438       .  S
C1138      C1139   1.404       .  A
C1138      H1143   1.084       .  S
C1140      N1141   1.438       .  S
N1141      H1145   1.046       .  S
N1141      H1146   1.045       .  S
N1144      H1147   1.046       .  S
N1144      H1148   1.046       .  S
C1149      C1154   1.405       .  A
C1149      H1156   1.083       .  S
C1151      C1152   1.405       .  A
C1151      N1158   1.438       .  S
C1152      H1157   1.083       .  S
C1154      N1155   1.438       .  S
N1155      H1159   1.046       .  S
N1155      H1160   1.045   1_556  S
N1158      H1161   1.045       .  S
N1158      H1162   1.046       .  S
C1163      C1164   1.404   1_565  A
C1163      C1168   1.404       .  A
C1163      H1170   1.083       .  S
C1165      C1166   1.404       .  A
C1165      N1172   1.438       .  S
C1166      H1171   1.083       .  S
C1167      C1168   1.417       .  A
C1168      N1169   1.438       .  S
N1169      H1173   1.046       .  S
N1169      H1174   1.045       .  S
N1172      H1175   1.045   1_556  S
N1172      H1176   1.046       .  S
C1177      C1178   1.401       .  A
C1177      C1182   1.407       .  A
C1177      H1184   1.084       .  S
C1178      C1179   1.410       .  A
C1179      C1180   1.405       .  A
C1179      N1186   1.437       .  S
C1180      C1181   1.404       .  A
C1180      H1185   1.084       .  S
C1181      C1182   1.415       .  A
C1182      N1183   1.438       .  S
N1183      H1187   1.046       .  S
N1183      H1188   1.045       .  S
N1186      H1189   1.045       .  S
N1186      H1190   1.045       .  S
C1191      C1192   1.403       .  A
C1191      C1196   1.405       .  A
C1191      H1198   1.084       .  S
C1192      C1193   1.418       .  A
C1193      C1194   1.401       .  A
C1193      N1200   1.438       .  S
C1194      C1195   1.403       .  A
C1194      H1199   1.084       .  S
C1195      C1196   1.412       .  A
C1196      N1197   1.438       .  S
N1197      H1201   1.046       .  S
N1197      H1202   1.046       .  S
N1200      H1203   1.042       .  S
N1200      H1204   1.046       .  S
C1205      C1206   1.407       .  A
C1205      C1210   1.402       .  A
C1205      H1212   1.084       .  S
C1207      C1208   1.405       .  A
C1207      N1214   1.438       .  S
C1208      H1213   1.084       .  S
C1209      C1210   1.413   1_545  A
C1210      N1211   1.439       .  S
N1211      H1215   1.046       .  S
N1211      H1216   1.043       .  S
N1214      H1217   1.046       .  S
N1214      H1218   1.046       .  S
C1219      C1220   1.406   1_565  A
C1219      C1224   1.406       .  A
C1219      H1226   1.084       .  S
C1221      C1222   1.405       .  A
C1221      N1228   1.438       .  S
C1222      H1227   1.084       .  S
C1223      C1224   1.407   1_545  A
C1224      N1225   1.438       .  S
N1225      H1229   1.046       .  S
N1225      H1230   1.046       .  S
N1228      H1231   1.045       .  S
N1228      H1232   1.046       .  S
C1233      C1234   1.402       .  A
C1233      C1238   1.406       .  A
C1233      H1240   1.084       .  S
C1234      C1235   1.417       .  A
C1235      C1236   1.404       .  A
C1235      N1242   1.439       .  S
C1236      C1237   1.401       .  A
C1236      H1241   1.084       .  S
C1237      C1238   1.407       .  A
C1238      N1239   1.436       .  S
N1239      H1243   1.046       .  S
N1239      H1244   1.046       .  S
N1242      H1245   1.043       .  S
N1242      H1246   1.045       .  S
C1247      C1248   1.405       .  A
C1247      C1252   1.408       .  A
C1247      H1254   1.084       .  S
C1248      C1249   1.416       .  A
C1249      C1250   1.407       .  A
C1249      N1256   1.438       .  S
C1250      C1251   1.405       .  A
C1250      H1255   1.084       .  S
C1251      C1252   1.415       .  A
C1252      N1253   1.438       .  S
N1253      H1257   1.046       .  S
N1253      H1258   1.045       .  S
N1256      H1259   1.045       .  S
N1256      H1260   1.046       .  S
C1261      C2606   1.399       .  A
C1261      C1266   1.405       .  A
C1261      H1268   1.084       .  S
C1262      C2605   1.399       .  A
C1262      C1263   1.413       .  A
C1263      C1264   1.401       .  A
C1263      N1270   1.440       .  S
C1264      C1265   1.407       .  A
C1264      H1269   1.084       .  S
C1265      C2610   1.418       .  A
C1266      C2609   1.418   1_455  A
C1266      N1267   1.438       .  S
N1267      H1271   1.046       .  S
N1267      H1272   1.045   1_455  S
N1270      H1273   1.043       .  S
N1270      H1274   1.046       .  S
C1275      C2620   1.408   1_455  A
C1275      C1280   1.400       .  A
C1275      H1282   1.084       .  S
C1276      C2619   1.408       .  A
C1276      C1277   1.418       .  A
C1277      C1278   1.405       .  A
C1277      N1284   1.438       .  S
C1278      C1279   1.398       .  A
C1278      H1283   1.084       .  S
C1279      C2624   1.413       .  A
C1280      C2623   1.413       .  A
C1280      N1281   1.439       .  S
N1281      H1285   1.046       .  S
N1281      H1286   1.043       .  S
N1284      H1287   1.046       .  S
N1284      H1288   1.046       .  S
C1289      C1290   1.399   1_455  A
C1289      C1294   1.406       .  A
C1289      H1296   1.084       .  S
C1290      C1963   1.412       .  A
C1291      C1962   1.412       .  A
C1291      C1292   1.401       .  A
C1291      N1298   1.439       .  S
C1292      C1965   1.408       .  A
C1292      H1297   1.084       .  S
C1293      C1964   1.408   1_455  A
C1293      C1294   1.419       .  A
C1294      N1295   1.438       .  S
C1303      C1976   1.400       .  A
C1303      C1308   1.405       .  A
C1303      H1310   1.084       .  S
C1304      C1975   1.400   1_455  A
C1304      C1305   1.414       .  A
C1305      C1306   1.400       .  A
C1305      N1312   1.439       .  S
C1306      C1307   1.406   1_455  A
C1306      H1311   1.084       .  S
C1307      C1980   1.415       .  A
C1308      C1979   1.415       .  A
C1308      N1309   1.438       .  S
N1309      H1313   1.046       .  S
N1309      H1314   1.046       .  S
N1312      H1315   1.043       .  S
N1312      H1316   1.046       .  S
C1317      C1318   1.405       .  A
C1317      C1322   1.403       .  A
C1317      H1324   1.083       .  S
C1318      C2663   1.414       .  A
C1319      C2662   1.414       .  A
C1319      C1320   1.403       .  A
C1319      N1326   1.438       .  S
C1320      C2665   1.405   1_455  A
C1320      H1325   1.083       .  S
C1321      C2664   1.405       .  A
C1321      C1322   1.415       .  A
C1322      N1323   1.438       .  S
N1323      H1327   1.046       .  S
N1323      H1328   1.045       .  S
N1326      H1329   1.045       .  S
N1326      H1330   1.046       .  S
C1331      C1332   1.405       .  A
C1331      C1336   1.403       .  A
C1331      H1338   1.083       .  S
C1332      C2677   1.415       .  A
C1333      C2676   1.415       .  A
C1333      C1334   1.403       .  A
C1333      N1340   1.438       .  S
C1334      C2679   1.405   1_455  A
C1334      H1339   1.083       .  S
C1335      C2678   1.405       .  A
C1335      C1336   1.415       .  A
C1336      N1337   1.438       .  S
N1337      H1341   1.046       .  S
N1337      H1342   1.045       .  S
N1340      H1343   1.045       .  S
N1340      H1344   1.046       .  S
O1345      V2025   1.900       .  S
O1346      V1353   1.899       .  S
O1347      V1353   1.894       .  S
O1347      C1357   1.264   1_655  A
O1348      V2025   1.895   1_545  S
O1348      C1358   1.263       .  A
O1349      V2026   1.894       .  S
O1350      V1354   1.896       .  S
O1351      V2026   1.898       .  S
O1351      C2028   1.264   1_545  A
O1352      V1354   1.897       .  S
O1352      C1355   1.264       .  A
V1353      O2017   1.900       .  S
V1353      O2020   1.895       .  S
V1354      O2021   1.894       .  S
V1354      O2023   1.898       .  S
C1355      C2315   1.484       .  S
C1356      O2023   1.264       .  A
C1356      C2301   1.489       .  S
C1357      C1654   1.484       .  S
C1358      C1671   1.484       .  S
O1359      V1367   1.899       .  S
O1360      V1367   1.900       .  S
O1361      V1367   1.893       .  S
O1362      V1367   1.895       .  S
O1363      V1368   1.893       .  S
O1363      C1372   1.264   1_655  A
O1364      V1368   1.897       .  S
O1364      C1371   1.264       .  A
O1365      V1368   1.896       .  S
O1365      C1370   1.262   1_655  A
O1366      V1368   1.897       .  S
O1366      C1369   1.264       .  A
C1369      C1612   1.489       .  S
C1370      C1598   1.467       .  S
C1371      C1657   1.484       .  S
C1372      C1668   1.483       .  S
O1373      V1381   1.904       .  S
O1373      C1383   1.266       .  A
O1374      V1381   1.906       .  S
O1374      C1384   1.267       .  A
O1375      V1381   1.899       .  S
O1375      C1385   1.262       .  A
O1376      V2053   1.899   1_545  S
O1376      C1386   1.264       .  A
O1377      V2054   1.905   1_545  S
O1377      C1386   1.267       .  A
O1378      V1382   1.905       .  S
O1378      C1385   1.265       .  A
O1379      V1382   1.893       .  S
O1379      C1384   1.263       .  A
O1380      V1382   1.893       .  S
O1380      C1383   1.262       .  A
V1381      O2048   1.899       .  S
V1381      V1382   2.085       .  T
V1382      O2049   1.905       .  S
C1383      C1556   1.484       .  S
C1384      C1542   1.489       .  S
C1385      C1570   1.471       .  S
C1386      C1584   1.489       .  S
O1387      V1395   1.900       .  S
O1387      C1397   1.264       .  A
O1388      V1395   1.898       .  S
O1388      C1398   1.263       .  A
O1389      V1395   1.900       .  S
O1389      C1399   1.263       .  A
O1390      V1395   1.905       .  S
O1390      C1400   1.265       .  A
O1391      V1396   1.901       .  S
O1391      C1400   1.265       .  A
O1392      V1396   1.905       .  S
O1392      C1399   1.264       .  A
O1393      V1396   1.902       .  S
O1393      C1398   1.264       .  A
O1394      V1396   1.899       .  S
O1394      C1397   1.264       .  A
V1395      V1396   2.087       .  T
C1397      C1528   1.474       .  S
C1398      C1514   1.474       .  S
C1399      C1573   1.471       .  S
C1400      C1587   1.489       .  S
O1401      V1409   1.900       .  S
O1401      C2083   1.263       .  A
O1403      C2421   1.262       .  A
O1404      V1745   1.893   1_554  S
O1404      C2086   1.262       .  A
O1405      V1746   1.901       .  S
O1405      C1750   1.266   1_545  A
O1406      C1413   1.267   1_545  A
O1407      V1410   1.897       .  S
O1407      C1412   1.262   1_545  A
V1409      O1740   1.893       .  S
V1409      V2418   2.087       .  T
V1410      O1741   1.901       .  S
V1410      V2417   2.087   1_544  T
C1411      O2073   1.263       .  A
C1411      C1640   1.468       .  S
C1412      C1626   1.466       .  S
C1413      O2411   1.262       .  A
C1413      C2161   1.488   1_556  S
C1414      O2076   1.262       .  A
C1414      O1741   1.266   1_565  A
C1414      C2175   1.487   1_554  S
O1415      V1423   1.900       .  S
O1415      C1425   1.263   1_655  A
O1416      V1759   1.900   1_554  S
O1416      C1426   1.266       .  A
O1417      V1423   1.898       .  S
O1417      C1763   1.265       .  A
O1418      C1428   1.264       .  A
O1419      C1764   1.265       .  A
O1420      V1424   1.901   1_655  S
O1420      C1427   1.265       .  A
O1422      V1760   1.896       .  S
O1422      C1425   1.262       .  A
V1423      O1752   1.900       .  S
V1423      V1760   2.085   1_655  T
V1424      O1758   1.896       .  S
V1424      V1759   2.085   1_455  T
C1425      C1615   1.466       .  S
C1426      C1601   1.487       .  S
C1427      O1753   1.265   1_556  A
C1427      C1458   1.491       .  S
C1428      O1755   1.265       .  A
C1428      C1475   1.483       .  S
O1429      V1437   1.900       .  S
O1429      C2111   1.264       .  A
O1430      V1773   1.900       .  S
O1430      C2112   1.263       .  A
O1431      V1437   1.892       .  S
O1431      C2449   1.262       .  A
O1432      V1773   1.893   1_556  S
O1432      C2114   1.263   1_556  A
O1433      V1774   1.900       .  S
O1433      C1778   1.266       .  A
O1434      V1438   1.905   1_556  S
O1434      C1441   1.268   1_556  A
O1435      V1438   1.898       .  S
O1435      C1440   1.262       .  A
O1436      V1774   1.897       .  S
O1436      C1439   1.263       .  A
V1437      O1766   1.900       .  S
V1437      O1768   1.893       .  S
V1437      V2446   2.085   1_545  T
V1438      O1769   1.900       .  S
V1438      O1772   1.897   1_554  S
V1438      V2445   2.085       .  T
C1439      O2101   1.264       .  A
C1439      C1559   1.468       .  S
C1440      O2102   1.263       .  A
C1440      C1545   1.467       .  S
C1441      O2439   1.262       .  A
C1441      C1486   1.489       .  S
C1442      O2104   1.263   1_554  A
C1442      O1769   1.266       .  A
C1442      C1500   1.487       .  S
O1443      V1451   1.901       .  S
O1443      C1453   1.265       .  A
O1444      V1787   1.900   1_554  S
O1444      C1454   1.265       .  A
O1445      V1451   1.897       .  S
O1445      C1791   1.265       .  A
O1446      V1787   1.900   1_554  S
O1446      C1456   1.265   1_554  A
O1447      V1788   1.898       .  S
O1447      C1792   1.265       .  A
O1448      V1452   1.902       .  S
O1448      C1455   1.265       .  A
O1449      V1452   1.898   1_554  S
O1449      C1454   1.263       .  A
O1450      V1788   1.898       .  S
O1450      C1453   1.264       .  A
V1451      O1780   1.900       .  S
V1451      O1782   1.900       .  S
V1451      V1788   2.085       .  T
V1452      O1783   1.898       .  S
V1452      O1786   1.898       .  S
V1452      V1787   2.085       .  T
C1453      C1531   1.478       .  S
C1454      C1517   1.481       .  S
C1455      O1781   1.265       .  A
C1455      C1461   1.491       .  S
C1456      O1783   1.265       .  A
C1456      C1472   1.483   1_556  S
C1457      C1458   1.406   1_554  A
C1457      C1462   1.406       .  A
C1457      H1464   1.083       .  S
C1458      C1795   1.416       .  A
C1459      C1794   1.416       .  A
C1459      C1460   1.406       .  A
C1459      N1466   1.438       .  S
C1460      C1797   1.407       .  A
C1460      H1465   1.083       .  S
C1461      C1796   1.407       .  A
C1461      C1462   1.416   1_556  A
C1462      N1463   1.438       .  S
N1463      H1803   1.046       .  S
N1463      H1804   1.045   1_554  S
N1466      H1805   1.045       .  S
N1466      H1806   1.046       .  S
H1467      N1799   1.046       .  S
H1468      N1799   1.045       .  S
H1469      N1802   1.045   1_554  S
H1470      N1802   1.046       .  S
C1471      C1808   1.405       .  A
C1471      C1476   1.405       .  A
C1471      H1478   1.084       .  S
C1472      C1807   1.405   1_554  A
C1472      C1473   1.413       .  A
C1473      C1474   1.405       .  A
C1473      N1480   1.438       .  S
C1474      C1475   1.404   1_554  A
C1474      H1479   1.084       .  S
C1475      C1812   1.414       .  A
C1476      C1811   1.414       .  A
C1476      N1477   1.438       .  S
N1477      H1481   1.046       .  S
N1477      H1482   1.045       .  S
N1480      H1483   1.046       .  S
N1480      H1484   1.046       .  S
C1485      C1822   1.404       .  A
C1485      C1490   1.405       .  A
C1485      H1492   1.083       .  S
C1486      C1821   1.404   1_554  A
C1486      C2159   1.418       .  A
C1487      C2158   1.418       .  A
C1487      C1488   1.405       .  A
C1487      N1494   1.438       .  S
C1488      C2161   1.404   1_545  A
C1488      H1493   1.083       .  S
C1489      C2085   1.488   1_554  S
C1489      C2160   1.404       .  A
C1489      C1826   1.417   1_554  A
C1490      C1825   1.417       .  A
C1490      N1491   1.438       .  S
N1491      H1495   1.046       .  S
N1491      H1496   1.045       .  S
N1494      H1497   1.045   1_554  S
N1494      H1498   1.046       .  S
C1499      C1500   1.404       .  A
C1499      C1504   1.404       .  A
C1499      H1506   1.083       .  S
C1500      C2509   1.417   1_554  A
C1501      C2508   1.417       .  A
C1501      C1502   1.404       .  A
C1501      N1508   1.438       .  S
C1502      C2511   1.404   1_545  A
C1502      H1507   1.083       .  S
C1503      C2086   1.487   1_556  S
C1503      C2510   1.404       .  A
C1503      C1504   1.417   1_556  A
C1504      N1505   1.438       .  S
N1505      H1509   1.046       .  S
N1505      H1510   1.045   1_554  S
N1508      H1511   1.045       .  S
N1508      H1512   1.046       .  S
C1513      C1514   1.401       .  A
C1513      C1518   1.407       .  A
C1513      H1520   1.084       .  S
C1514      C1515   1.410       .  A
C1515      C1516   1.405       .  A
C1515      N1522   1.437       .  S
C1516      C1517   1.404       .  A
C1516      H1521   1.084       .  S
C1517      C1518   1.415       .  A
C1518      N1519   1.438       .  S
N1519      H1523   1.046       .  S
N1519      H1524   1.045       .  S
N1522      H1525   1.045       .  S
N1522      H1526   1.045       .  S
C1527      C1528   1.403       .  A
C1527      C1532   1.405       .  A
C1527      H1534   1.084       .  S
C1528      C1529   1.418       .  A
C1529      C1530   1.401       .  A
C1529      N1536   1.438       .  S
C1530      C1531   1.403       .  A
C1530      H1535   1.084       .  S
C1531      C1532   1.412       .  A
C1532      N1533   1.438       .  S
N1533      H1537   1.046       .  S
N1533      H1538   1.046       .  S
N1536      H1539   1.042       .  S
N1536      H1540   1.046       .  S
C1541      C1542   1.407       .  A
C1541      C1546   1.402       .  A
C1541      H1548   1.084       .  S
C1542      C2215   1.419       .  A
C1543      C2214   1.419   1_545  A
C1543      C1544   1.405       .  A
C1543      N1550   1.438       .  S
C1544      C2217   1.398       .  A
C1544      H1549   1.084       .  S
C1545      C2216   1.398       .  A
C1545      C1546   1.413       .  A
C1546      N1547   1.439       .  S
N1547      H1551   1.046       .  S
N1547      H1552   1.043       .  S
N1550      H1553   1.046       .  S
N1550      H1554   1.046       .  S
C1555      C1556   1.406       .  A
C1555      C1560   1.406       .  A
C1555      H1562   1.084       .  S
C1556      C2229   1.418       .  A
C1557      C2228   1.418       .  A
C1557      C1558   1.405       .  A
C1557      N1564   1.438       .  S
C1558      C2231   1.398       .  A
C1558      H1563   1.084       .  S
C1559      C2230   1.398       .  A
C1559      C1560   1.407       .  A
C1560      N1561   1.438       .  S
N1561      H1565   1.046       .  S
N1561      H1566   1.046       .  S
N1564      H1567   1.045       .  S
N1564      H1568   1.046       .  S
C1569      C1570   1.402       .  A
C1569      C1574   1.406       .  A
C1569      H1576   1.084       .  S
C1570      C1571   1.417       .  A
C1571      C1572   1.404       .  A
C1571      N1578   1.439       .  S
C1572      C1573   1.401       .  A
C1572      H1577   1.084       .  S
C1573      C1574   1.407       .  A
C1574      N1575   1.436       .  S
N1575      H1579   1.046       .  S
N1575      H1580   1.046       .  S
N1578      H1581   1.043       .  S
N1578      H1582   1.045       .  S
C1583      C1584   1.405       .  A
C1583      C1588   1.408       .  A
C1583      H1590   1.084       .  S
C1584      C1585   1.416       .  A
C1585      C1586   1.407       .  A
C1585      N1592   1.438       .  S
C1586      C1587   1.405       .  A
C1586      H1591   1.084       .  S
C1587      C1588   1.415       .  A
C1588      N1589   1.438       .  S
N1589      H1593   1.046       .  S
N1589      H1594   1.045       .  S
N1592      H1595   1.045       .  S
N1592      H1596   1.046       .  S
C1597      C1602   1.405       .  A
C1597      H1604   1.084       .  S
C1598      C1599   1.413   1_455  A
C1599      C1600   1.401       .  A
C1599      N1606   1.440       .  S
C1600      C1601   1.407       .  A
C1600      H1605   1.084       .  S
C1602      N1603   1.438       .  S
N1603      H1607   1.046       .  S
N1603      H1608   1.045       .  S
N1606      H1609   1.043       .  S
N1606      H1610   1.046   1_655  S
C1611      C1616   1.400       .  A
C1611      H1618   1.084       .  S
C1612      C1613   1.418       .  A
C1613      C1614   1.405       .  A
C1613      N1620   1.438       .  S
C1614      C1615   1.398   1_655  A
C1614      H1619   1.084       .  S
C1616      N1617   1.439       .  S
N1617      H1621   1.046       .  S
N1617      H1622   1.043       .  S
N1620      H1623   1.046       .  S
N1620      H1624   1.046       .  S
C1625      C1626   1.399   1_545  A
C1625      C1630   1.406       .  A
C1625      H1632   1.084       .  S
C1627      C1628   1.401       .  A
C1627      N1634   1.439       .  S
C1628      H1633   1.084       .  S
C1629      C2028   1.489       .  S
C1629      C1630   1.419   1_565  A
C1630      N1631   1.438       .  S
N1631      H2307   1.046       .  S
N1631      H2308   1.046   1_545  S
N1634      H2309   1.043       .  S
N1634      H2310   1.046       .  S
H1635      N2303   1.046       .  S
H1636      N2303   1.046       .  S
H1637      N2306   1.043       .  S
H1638      N2306   1.046   1_545  S
C1639      C1644   1.405       .  A
C1639      H1646   1.084       .  S
C1640      C1641   1.414   1_565  A
C1641      C1642   1.400       .  A
C1641      N1648   1.439       .  S
C1642      C1643   1.406   1_545  A
C1642      H1647   1.084       .  S
C1643      C2027   1.484       .  S
C1644      N1645   1.438       .  S
N1645      H1649   1.046       .  S
N1645      H1650   1.046       .  S
N1648      H1651   1.043       .  S
N1648      H1652   1.046       .  S
C1653      C1654   1.405   1_655  A
C1653      C1658   1.403       .  A
C1653      H1660   1.083       .  S
C1655      C1656   1.403       .  A
C1655      N1662   1.438       .  S
C1656      H1661   1.083       .  S
C1657      C1658   1.415       .  A
C1658      N1659   1.438       .  S
N1659      H1663   1.046       .  S
N1659      H1664   1.045       .  S
N1662      H1665   1.045       .  S
N1662      H1666   1.046       .  S
C1667      C1668   1.405   1_655  A
C1667      C1672   1.403       .  A
C1667      H1674   1.083       .  S
C1669      C1670   1.403       .  A
C1669      N1676   1.438       .  S
C1670      H1675   1.083       .  S
C1671      C1672   1.415       .  A
C1672      N1673   1.438       .  S
N1673      H1677   1.046       .  S
N1673      H1678   1.045       .  S
N1676      H1679   1.045       .  S
N1676      H1680   1.046       .  S
O1681      V2361   1.900       .  S
O1682      V1689   1.899       .  S
O1683      V1689   1.894       .  S
O1683      C1693   1.264   1_655  A
O1684      V2361   1.895   1_545  S
O1684      C1694   1.263       .  A
O1685      V2362   1.894       .  S
O1686      V1690   1.896       .  S
O1687      V2362   1.898       .  S
O1687      C2364   1.264   1_545  A
O1688      V1690   1.897       .  S
O1688      C1691   1.264       .  A
V1689      O2353   1.900       .  S
V1689      O2356   1.895       .  S
V1690      O2357   1.894       .  S
V1690      O2359   1.898       .  S
C1691      C2651   1.484       .  S
C1692      O2359   1.264       .  A
C1692      C2637   1.489       .  S
C1693      C1990   1.484       .  S
C1694      C2007   1.484       .  S
O1695      V1703   1.899       .  S
O1696      V1703   1.900       .  S
O1697      V1703   1.893       .  S
O1698      V1703   1.895       .  S
O1699      V1704   1.893       .  S
O1699      C1708   1.264   1_655  A
O1700      V1704   1.897       .  S
O1700      C1707   1.264       .  A
O1701      V1704   1.896       .  S
O1701      C1706   1.262   1_655  A
O1702      V1704   1.897       .  S
O1702      C1705   1.264       .  A
C1705      C1948   1.489       .  S
C1706      C1934   1.467       .  S
C1707      C1993   1.484       .  S
C1708      C2004   1.483       .  S
O1709      V1717   1.904       .  S
O1709      C1719   1.266       .  A
O1710      V1717   1.906       .  S
O1710      C1720   1.267       .  A
O1711      V1717   1.899       .  S
O1711      C1721   1.262       .  A
O1712      V2389   1.899   1_545  S
O1712      C1722   1.264       .  A
O1713      V2390   1.905   1_545  S
O1713      C1722   1.267       .  A
O1714      V1718   1.905       .  S
O1714      C1721   1.265       .  A
O1715      V1718   1.893       .  S
O1715      C1720   1.263       .  A
O1716      V1718   1.893       .  S
O1716      C1719   1.262       .  A
V1717      O2384   1.899       .  S
V1717      V1718   2.085       .  T
V1718      O2385   1.905       .  S
C1719      C1892   1.484       .  S
C1720      C1878   1.489       .  S
C1721      C1906   1.471       .  S
C1722      C1920   1.489       .  S
O1723      V1731   1.900       .  S
O1723      C1733   1.264       .  A
O1724      V1731   1.898       .  S
O1724      C1734   1.263       .  A
O1725      V1731   1.900       .  S
O1725      C1735   1.263       .  A
O1726      V1731   1.905       .  S
O1726      C1736   1.265       .  A
O1727      V1732   1.901       .  S
O1727      C1736   1.265       .  A
O1728      V1732   1.905       .  S
O1728      C1735   1.264       .  A
O1729      V1732   1.902       .  S
O1729      C1734   1.264       .  A
O1730      V1732   1.899       .  S
O1730      C1733   1.264       .  A
V1731      V1732   2.087       .  T
C1733      C1864   1.474       .  S
C1734      C1850   1.474       .  S
C1735      C1909   1.471       .  S
C1736      C1923   1.489       .  S
O1737      V1745   1.900       .  S
O1737      C2419   1.263       .  A
O1739      C2085   1.262       .  A
O1740      C2422   1.262       .  A
O1742      C1749   1.267   1_545  A
O1743      V1746   1.897       .  S
O1743      C1748   1.262   1_545  A
V1745      V2082   2.087   1_556  T
V1746      V2081   2.087   1_545  T
C1747      O2409   1.263       .  A
C1747      C1976   1.468       .  S
C1748      C1962   1.466       .  S
C1749      O2075   1.262       .  A
C1749      C2497   1.488       .  S
C1750      O2412   1.262       .  A
C1750      C2511   1.487       .  S
O1751      V1759   1.900       .  S
O1751      C1761   1.263   1_655  A
O1752      C1762   1.266       .  A
O1753      V1759   1.898   1_554  S
O1754      C1764   1.264       .  A
O1756      V1760   1.901   1_655  S
O1756      C1763   1.265       .  A
O1758      C1761   1.262       .  A
C1761      C1951   1.466       .  S
C1762      C1937   1.487       .  S
C1763      C1794   1.491       .  S
C1764      C1811   1.483       .  S
O1765      V1773   1.900   1_556  S
O1765      C2447   1.264       .  A
O1766      C2448   1.263       .  A
O1767      V1773   1.892       .  S
O1767      C2113   1.262       .  A
O1768      C2450   1.263       .  A
O1770      V1774   1.905       .  S
O1770      C1777   1.268       .  A
O1771      V1774   1.898       .  S
O1771      C1776   1.262       .  A
O1772      C1775   1.263       .  A
V1773      V2110   2.085   1_545  T
V1774      V2109   2.085       .  T
C1775      O2437   1.264       .  A
C1775      C1895   1.468       .  S
C1776      O2438   1.263       .  A
C1776      C1881   1.467       .  S
C1777      O2103   1.262       .  A
C1777      C1822   1.489       .  S
C1778      O2440   1.263       .  A
C1778      C1836   1.487       .  S
O1779      V1787   1.901       .  S
O1779      C1789   1.265       .  A
O1780      C1790   1.265       .  A
O1781      V1787   1.897       .  S
O1782      C1792   1.265       .  A
O1784      V1788   1.902       .  S
O1784      C1791   1.265       .  A
O1785      V1788   1.898       .  S
O1785      C1790   1.263       .  A
O1786      C1789   1.264       .  A
C1789      C1867   1.478       .  S
C1790      C1853   1.481       .  S
C1791      C1797   1.491       .  S
C1792      C1808   1.483       .  S
C1793      C1794   1.406       .  A
C1793      C1798   1.406       .  A
C1793      H1800   1.083       .  S
C1795      C1796   1.406       .  A
C1795      N1802   1.438       .  S
C1796      H1801   1.083       .  S
C1797      C1798   1.416       .  A
C1798      N1799   1.438       .  S
C1807      C1812   1.405       .  A
C1807      H1814   1.084       .  S
C1808      C1809   1.413       .  A
C1809      C1810   1.405       .  A
C1809      N1816   1.438       .  S
C1810      C1811   1.404       .  A
C1810      H1815   1.084       .  S
C1812      N1813   1.438       .  S
N1813      H1817   1.046       .  S
N1813      H1818   1.045       .  S
N1816      H1819   1.046       .  S
N1816      H1820   1.046       .  S
C1821      C1826   1.405       .  A
C1821      H1828   1.083       .  S
C1822      C2495   1.418       .  A
C1823      C2494   1.418       .  A
C1823      C1824   1.405       .  A
C1823      N1830   1.438       .  S
C1824      C2497   1.404   1_545  A
C1824      H1829   1.083       .  S
C1825      C2421   1.488       .  S
C1825      C2496   1.404       .  A
C1826      N1827   1.438       .  S
N1827      H1831   1.046       .  S
N1827      H1832   1.045   1_556  S
N1830      H1833   1.045       .  S
N1830      H1834   1.046       .  S
C1835      C1836   1.404       .  A
C1835      C1840   1.404       .  A
C1835      H1842   1.083       .  S
C1836      C2173   1.417       .  A
C1837      C2172   1.417   1_556  A
C1837      C1838   1.404       .  A
C1837      N1844   1.438       .  S
C1838      C2175   1.404   1_545  A
C1838      H1843   1.083       .  S
C1839      C2422   1.487       .  S
C1839      C2174   1.404       .  A
C1839      C1840   1.417       .  A
C1840      N1841   1.438       .  S
N1841      H1845   1.046       .  S
N1841      H1846   1.045       .  S
N1844      H1847   1.045   1_556  S
N1844      H1848   1.046       .  S
C1849      C1850   1.401       .  A
C1849      C1854   1.407       .  A
C1849      H1856   1.084       .  S
C1850      C1851   1.410       .  A
C1851      C1852   1.405       .  A
C1851      N1858   1.437       .  S
C1852      C1853   1.404       .  A
C1852      H1857   1.084       .  S
C1853      C1854   1.415       .  A
C1854      N1855   1.438       .  S
N1855      H1859   1.046       .  S
N1855      H1860   1.045       .  S
N1858      H1861   1.045       .  S
N1858      H1862   1.045       .  S
C1863      C1864   1.403       .  A
C1863      C1868   1.405       .  A
C1863      H1870   1.084       .  S
C1864      C1865   1.418       .  A
C1865      C1866   1.401       .  A
C1865      N1872   1.438       .  S
C1866      C1867   1.403       .  A
C1866      H1871   1.084       .  S
C1867      C1868   1.412       .  A
C1868      N1869   1.438       .  S
N1869      H1873   1.046       .  S
N1869      H1874   1.046       .  S
N1872      H1875   1.042       .  S
N1872      H1876   1.046       .  S
C1877      C1878   1.407       .  A
C1877      C1882   1.402       .  A
C1877      H1884   1.084       .  S
C1878      C2551   1.419       .  A
C1879      C2550   1.419   1_545  A
C1879      C1880   1.405       .  A
C1879      N1886   1.438       .  S
C1880      C2553   1.398       .  A
C1880      H1885   1.084       .  S
C1881      C2552   1.398       .  A
C1881      C1882   1.413       .  A
C1882      N1883   1.439       .  S
N1883      H1887   1.046       .  S
N1883      H1888   1.043       .  S
N1886      H1889   1.046       .  S
N1886      H1890   1.046       .  S
C1891      C1892   1.406       .  A
C1891      C1896   1.406       .  A
C1891      H1898   1.084       .  S
C1892      C2565   1.418       .  A
C1893      C2564   1.418       .  A
C1893      C1894   1.405       .  A
C1893      N1900   1.438       .  S
C1894      C2567   1.398       .  A
C1894      H1899   1.084       .  S
C1895      C2566   1.398       .  A
C1895      C1896   1.407       .  A
C1896      N1897   1.438       .  S
N1897      H1901   1.046       .  S
N1897      H1902   1.046       .  S
N1900      H1903   1.045       .  S
N1900      H1904   1.046       .  S
C1905      C1906   1.402       .  A
C1905      C1910   1.406       .  A
C1905      H1912   1.084       .  S
C1906      C1907   1.417       .  A
C1907      C1908   1.404       .  A
C1907      N1914   1.439       .  S
C1908      C1909   1.401       .  A
C1908      H1913   1.084       .  S
C1909      C1910   1.407       .  A
C1910      N1911   1.436       .  S
N1911      H1915   1.046       .  S
N1911      H1916   1.046       .  S
N1914      H1917   1.043       .  S
N1914      H1918   1.045       .  S
C1919      C1920   1.405       .  A
C1919      C1924   1.408       .  A
C1919      H1926   1.084       .  S
C1920      C1921   1.416       .  A
C1921      C1922   1.407       .  A
C1921      N1928   1.438       .  S
C1922      C1923   1.405       .  A
C1922      H1927   1.084       .  S
C1923      C1924   1.415       .  A
C1924      N1925   1.438       .  S
N1925      H1929   1.046       .  S
N1925      H1930   1.045       .  S
N1928      H1931   1.045       .  S
N1928      H1932   1.046       .  S
C1933      C1938   1.405       .  A
C1933      H1940   1.084       .  S
C1934      C1935   1.413   1_455  A
C1935      C1936   1.401       .  A
C1935      N1942   1.440       .  S
C1936      C1937   1.407       .  A
C1936      H1941   1.084       .  S
C1938      N1939   1.438       .  S
N1939      H1943   1.046       .  S
N1939      H1944   1.045       .  S
N1942      H1945   1.043       .  S
N1942      H1946   1.046   1_655  S
C1947      C1952   1.400       .  A
C1947      H1954   1.084       .  S
C1948      C1949   1.418       .  A
C1949      C1950   1.405       .  A
C1949      N1956   1.438       .  S
C1950      C1951   1.398   1_655  A
C1950      H1955   1.084       .  S
C1952      N1953   1.439       .  S
N1953      H1957   1.046       .  S
N1953      H1958   1.043       .  S
N1956      H1959   1.046       .  S
N1956      H1960   1.046       .  S
C1961      C1962   1.399   1_545  A
C1961      C1966   1.406       .  A
C1961      H1968   1.084       .  S
C1963      C1964   1.401       .  A
C1963      N1970   1.439       .  S
C1964      H1969   1.084       .  S
C1965      C2364   1.489       .  S
C1965      C1966   1.419   1_565  A
C1966      N1967   1.438       .  S
N1967      H2643   1.046       .  S
N1967      H2644   1.046   1_545  S
N1970      H2645   1.043       .  S
N1970      H2646   1.046       .  S
H1971      N2639   1.046       .  S
H1972      N2639   1.046       .  S
H1973      N2642   1.043       .  S
H1974      N2642   1.046   1_545  S
C1975      C1980   1.405       .  A
C1975      H1982   1.084       .  S
C1976      C1977   1.414   1_565  A
C1977      C1978   1.400       .  A
C1977      N1984   1.439       .  S
C1978      C1979   1.406   1_545  A
C1978      H1983   1.084       .  S
C1979      C2363   1.484       .  S
C1980      N1981   1.438       .  S
N1981      H1985   1.046       .  S
N1981      H1986   1.046       .  S
N1984      H1987   1.043       .  S
N1984      H1988   1.046       .  S
C1989      C1990   1.405   1_655  A
C1989      C1994   1.403       .  A
C1989      H1996   1.083       .  S
C1991      C1992   1.403       .  A
C1991      N1998   1.438       .  S
C1992      H1997   1.083       .  S
C1993      C1994   1.415       .  A
C1994      N1995   1.438       .  S
N1995      H1999   1.046       .  S
N1995      H2000   1.045       .  S
N1998      H2001   1.045       .  S
N1998      H2002   1.046       .  S
C2003      C2004   1.405   1_655  A
C2003      C2008   1.403       .  A
C2003      H2010   1.083       .  S
C2005      C2006   1.403       .  A
C2005      N2012   1.438       .  S
C2006      H2011   1.083       .  S
C2007      C2008   1.415       .  A
C2008      N2009   1.438       .  S
N2009      H2013   1.046       .  S
N2009      H2014   1.045       .  S
N2012      H2015   1.045       .  S
N2012      H2016   1.046       .  S
O2018      V2025   1.899       .  S
O2019      V2025   1.894       .  S
O2019      C2029   1.264   1_655  A
O2020      C2030   1.263       .  A
O2022      V2026   1.896   1_565  S
O2024      V2026   1.897       .  S
O2024      C2027   1.264   1_545  A
C2029      C2326   1.484       .  S
C2030      C2343   1.484       .  S
O2031      V2039   1.899       .  S
O2032      V2039   1.900       .  S
O2033      V2039   1.893       .  S
O2034      V2039   1.895       .  S
O2035      V2040   1.893       .  S
O2035      C2044   1.264   1_655  A
O2036      V2040   1.897       .  S
O2036      C2043   1.264       .  A
O2037      V2040   1.896       .  S
O2037      C2042   1.262   1_655  A
O2038      V2040   1.897       .  S
O2038      C2041   1.264       .  A
C2041      C2284   1.489       .  S
C2042      C2270   1.467       .  S
C2043      C2329   1.484       .  S
C2044      C2340   1.483       .  S
O2045      V2053   1.904       .  S
O2045      C2055   1.266       .  A
O2046      V2053   1.906       .  S
O2046      C2056   1.267       .  A
O2047      V2053   1.899       .  S
O2047      C2057   1.262       .  A
O2048      C2058   1.264       .  A
O2049      C2058   1.267       .  A
O2050      V2054   1.905       .  S
O2050      C2057   1.265       .  A
O2051      V2054   1.893       .  S
O2051      C2056   1.263       .  A
O2052      V2054   1.893   1_545  S
O2052      C2055   1.262   1_545  A
V2053      V2054   2.085       .  T
C2055      C2228   1.484   1_565  S
C2056      C2214   1.489       .  S
C2057      C2242   1.471       .  S
C2058      C2256   1.489       .  S
O2059      V2067   1.900       .  S
O2059      C2069   1.264       .  A
O2060      V2067   1.898       .  S
O2060      C2070   1.263       .  A
O2061      V2067   1.900       .  S
O2061      C2071   1.263       .  A
O2062      V2067   1.905       .  S
O2062      C2072   1.265       .  A
O2063      V2068   1.901       .  S
O2063      C2072   1.265       .  A
O2064      V2068   1.905       .  S
O2064      C2071   1.264       .  A
O2065      V2068   1.902       .  S
O2065      C2070   1.264       .  A
O2066      V2068   1.899       .  S
O2066      C2069   1.264       .  A
V2067      V2068   2.087       .  T
C2069      C2200   1.474       .  S
C2070      C2186   1.474       .  S
C2071      C2245   1.471       .  S
C2072      C2259   1.489       .  S
O2073      V2081   1.900       .  S
O2076      V2417   1.893   1_554  S
O2077      V2418   1.901       .  S
O2077      C2422   1.266       .  A
O2078      C2085   1.267       .  A
O2079      V2082   1.897       .  S
O2079      C2084   1.262       .  A
V2081      O2412   1.893       .  S
V2082      O2413   1.901       .  S
C2083      C2312   1.468       .  S
C2084      C2298   1.466       .  S
C2086      O2413   1.266       .  A
O2087      V2095   1.900       .  S
O2087      C2097   1.263   1_655  A
O2088      V2431   1.900   1_554  S
O2088      C2098   1.266       .  A
O2089      V2095   1.898       .  S
O2089      C2435   1.265       .  A
O2090      C2100   1.264       .  A
O2091      C2436   1.265       .  A
O2092      V2096   1.901   1_655  S
O2092      C2099   1.265       .  A
O2094      V2432   1.896       .  S
O2094      C2097   1.262       .  A
V2095      O2424   1.900       .  S
V2095      V2432   2.085   1_655  T
V2096      O2430   1.896       .  S
V2096      V2431   2.085   1_455  T
C2097      C2287   1.466       .  S
C2098      C2273   1.487       .  S
C2099      O2425   1.265   1_556  A
C2099      C2130   1.491       .  S
C2100      O2427   1.265       .  A
C2100      C2147   1.483       .  S
O2101      V2109   1.900       .  S
O2102      V2445   1.900       .  S
O2103      V2109   1.892       .  S
O2104      V2445   1.893   1_556  S
O2105      V2446   1.900       .  S
O2105      C2450   1.266   1_565  A
O2106      V2110   1.905   1_556  S
O2106      C2113   1.268   1_566  A
O2107      V2110   1.898       .  S
O2107      C2112   1.262   1_565  A
O2108      V2446   1.897       .  S
O2108      C2111   1.263   1_565  A
V2109      O2438   1.900       .  S
V2109      O2440   1.893       .  S
V2110      O2441   1.900       .  S
V2110      O2444   1.897   1_554  S
C2111      C2231   1.468       .  S
C2112      C2217   1.467       .  S
C2113      C2158   1.489       .  S
C2114      O2441   1.266   1_545  A
C2114      C2172   1.487       .  S
O2115      V2123   1.901       .  S
O2115      C2125   1.265       .  A
O2116      V2459   1.900   1_554  S
O2116      C2126   1.265       .  A
O2117      V2123   1.897       .  S
O2117      C2463   1.265       .  A
O2118      V2459   1.900   1_554  S
O2118      C2128   1.265   1_554  A
O2119      V2460   1.898       .  S
O2119      C2464   1.265       .  A
O2120      V2124   1.902       .  S
O2120      C2127   1.265       .  A
O2121      V2124   1.898   1_554  S
O2121      C2126   1.263       .  A
O2122      V2460   1.898       .  S
O2122      C2125   1.264       .  A
V2123      O2452   1.900       .  S
V2123      O2454   1.900       .  S
V2123      V2460   2.085       .  T
V2124      O2455   1.898       .  S
V2124      O2458   1.898       .  S
V2124      V2459   2.085       .  T
C2125      C2203   1.478       .  S
C2126      C2189   1.481       .  S
C2127      O2453   1.265       .  A
C2127      C2133   1.491       .  S
C2128      O2455   1.265       .  A
C2128      C2144   1.483   1_556  S
C2129      C2130   1.406   1_554  A
C2129      C2134   1.406       .  A
C2129      H2136   1.083       .  S
C2130      C2467   1.416       .  A
C2131      C2466   1.416       .  A
C2131      C2132   1.406       .  A
C2131      N2138   1.438       .  S
C2132      C2469   1.407       .  A
C2132      H2137   1.083       .  S
C2133      C2468   1.407       .  A
C2133      C2134   1.416   1_556  A
C2134      N2135   1.438       .  S
N2135      H2475   1.046       .  S
N2135      H2476   1.045   1_554  S
N2138      H2477   1.045       .  S
N2138      H2478   1.046       .  S
H2139      N2471   1.046       .  S
H2140      N2471   1.045       .  S
H2141      N2474   1.045   1_554  S
H2142      N2474   1.046       .  S
C2143      C2480   1.405       .  A
C2143      C2148   1.405       .  A
C2143      H2150   1.084       .  S
C2144      C2479   1.405   1_554  A
C2144      C2145   1.413       .  A
C2145      C2146   1.405       .  A
C2145      N2152   1.438       .  S
C2146      C2147   1.404   1_554  A
C2146      H2151   1.084       .  S
C2147      C2484   1.414       .  A
C2148      C2483   1.414       .  A
C2148      N2149   1.438       .  S
N2149      H2153   1.046       .  S
N2149      H2154   1.045       .  S
N2152      H2155   1.046       .  S
N2152      H2156   1.046       .  S
C2157      C2494   1.404   1_565  A
C2157      C2162   1.405       .  A
C2157      H2164   1.083       .  S
C2158      C2493   1.404   1_544  A
C2159      C2160   1.405       .  A
C2159      N2166   1.438       .  S
C2160      H2165   1.083       .  S
C2161      C2498   1.417   1_554  A
C2162      C2497   1.417       .  A
C2162      N2163   1.438       .  S
N2163      H2167   1.046       .  S
N2163      H2168   1.045       .  S
N2166      H2169   1.045   1_554  S
N2166      H2170   1.046       .  S
C2171      C2172   1.404   1_565  A
C2171      C2176   1.404       .  A
C2171      H2178   1.083       .  S
C2173      C2174   1.404       .  A
C2173      N2180   1.438       .  S
C2174      H2179   1.083       .  S
C2175      C2176   1.417   1_556  A
C2176      N2177   1.438       .  S
N2177      H2181   1.046       .  S
N2177      H2182   1.045   1_554  S
N2180      H2183   1.045       .  S
N2180      H2184   1.046       .  S
C2185      C2186   1.401       .  A
C2185      C2190   1.407       .  A
C2185      H2192   1.084       .  S
C2186      C2187   1.410       .  A
C2187      C2188   1.405       .  A
C2187      N2194   1.437       .  S
C2188      C2189   1.404       .  A
C2188      H2193   1.084       .  S
C2189      C2190   1.415       .  A
C2190      N2191   1.438       .  S
N2191      H2195   1.046       .  S
N2191      H2196   1.045       .  S
N2194      H2197   1.045       .  S
N2194      H2198   1.045       .  S
C2199      C2200   1.403       .  A
C2199      C2204   1.405       .  A
C2199      H2206   1.084       .  S
C2200      C2201   1.418       .  A
C2201      C2202   1.401       .  A
C2201      N2208   1.438       .  S
C2202      C2203   1.403       .  A
C2202      H2207   1.084       .  S
C2203      C2204   1.412       .  A
C2204      N2205   1.438       .  S
N2205      H2209   1.046       .  S
N2205      H2210   1.046       .  S
N2208      H2211   1.042       .  S
N2208      H2212   1.046       .  S
C2213      C2214   1.407       .  A
C2213      C2218   1.402       .  A
C2213      H2220   1.084       .  S
C2215      C2216   1.405       .  A
C2215      N2222   1.438       .  S
C2216      H2221   1.084       .  S
C2217      C2218   1.413   1_545  A
C2218      N2219   1.439       .  S
N2219      H2223   1.046       .  S
N2219      H2224   1.043       .  S
N2222      H2225   1.046       .  S
N2222      H2226   1.046       .  S
C2227      C2228   1.406   1_565  A
C2227      C2232   1.406       .  A
C2227      H2234   1.084       .  S
C2229      C2230   1.405       .  A
C2229      N2236   1.438       .  S
C2230      H2235   1.084       .  S
C2231      C2232   1.407   1_545  A
C2232      N2233   1.438       .  S
N2233      H2237   1.046       .  S
N2233      H2238   1.046       .  S
N2236      H2239   1.045       .  S
N2236      H2240   1.046       .  S
C2241      C2242   1.402       .  A
C2241      C2246   1.406       .  A
C2241      H2248   1.084       .  S
C2242      C2243   1.417       .  A
C2243      C2244   1.404       .  A
C2243      N2250   1.439       .  S
C2244      C2245   1.401       .  A
C2244      H2249   1.084       .  S
C2245      C2246   1.407       .  A
C2246      N2247   1.436       .  S
N2247      H2251   1.046       .  S
N2247      H2252   1.046       .  S
N2250      H2253   1.043       .  S
N2250      H2254   1.045       .  S
C2255      C2256   1.405       .  A
C2255      C2260   1.408       .  A
C2255      H2262   1.084       .  S
C2256      C2257   1.416       .  A
C2257      C2258   1.407       .  A
C2257      N2264   1.438       .  S
C2258      C2259   1.405       .  A
C2258      H2263   1.084       .  S
C2259      C2260   1.415       .  A
C2260      N2261   1.438       .  S
N2261      H2265   1.046       .  S
N2261      H2266   1.045       .  S
N2264      H2267   1.045       .  S
N2264      H2268   1.046       .  S
C2269      C2274   1.405       .  A
C2269      H2276   1.084       .  S
C2270      C2271   1.413   1_455  A
C2271      C2272   1.401       .  A
C2271      N2278   1.440       .  S
C2272      C2273   1.407       .  A
C2272      H2277   1.084       .  S
C2274      N2275   1.438       .  S
N2275      H2279   1.046       .  S
N2275      H2280   1.045       .  S
N2278      H2281   1.043       .  S
N2278      H2282   1.046   1_655  S
C2283      C2288   1.400       .  A
C2283      H2290   1.084       .  S
C2284      C2285   1.418       .  A
C2285      C2286   1.405       .  A
C2285      N2292   1.438       .  S
C2286      C2287   1.398   1_655  A
C2286      H2291   1.084       .  S
C2288      N2289   1.439       .  S
N2289      H2293   1.046       .  S
N2289      H2294   1.043       .  S
N2292      H2295   1.046       .  S
N2292      H2296   1.046       .  S
C2297      C2298   1.399       .  A
C2297      C2302   1.406       .  A
C2297      H2304   1.084       .  S
C2299      C2300   1.401       .  A
C2299      N2306   1.439       .  S
C2300      H2305   1.084       .  S
C2301      C2302   1.419       .  A
C2302      N2303   1.438       .  S
C2311      C2316   1.405       .  A
C2311      H2318   1.084       .  S
C2312      C2313   1.414       .  A
C2313      C2314   1.400       .  A
C2313      N2320   1.439       .  S
C2314      C2315   1.406       .  A
C2314      H2319   1.084       .  S
C2316      N2317   1.438       .  S
N2317      H2321   1.046       .  S
N2317      H2322   1.046       .  S
N2320      H2323   1.043       .  S
N2320      H2324   1.046       .  S
C2325      C2326   1.405   1_655  A
C2325      C2330   1.403       .  A
C2325      H2332   1.083       .  S
C2327      C2328   1.403       .  A
C2327      N2334   1.438       .  S
C2328      H2333   1.083       .  S
C2329      C2330   1.415       .  A
C2330      N2331   1.438       .  S
N2331      H2335   1.046       .  S
N2331      H2336   1.045       .  S
N2334      H2337   1.045       .  S
N2334      H2338   1.046       .  S
C2339      C2340   1.405   1_655  A
C2339      C2344   1.403       .  A
C2339      H2346   1.083       .  S
C2341      C2342   1.403       .  A
C2341      N2348   1.438       .  S
C2342      H2347   1.083       .  S
C2343      C2344   1.415       .  A
C2344      N2345   1.438       .  S
N2345      H2349   1.046       .  S
N2345      H2350   1.045       .  S
N2348      H2351   1.045       .  S
N2348      H2352   1.046       .  S
O2354      V2361   1.899       .  S
O2355      V2361   1.894       .  S
O2355      C2365   1.264   1_655  A
O2356      C2366   1.263       .  A
O2358      V2362   1.896   1_565  S
O2360      V2362   1.897       .  S
O2360      C2363   1.264   1_545  A
C2365      C2662   1.484       .  S
C2366      C2679   1.484       .  S
O2367      V2375   1.899       .  S
O2368      V2375   1.900       .  S
O2369      V2375   1.893       .  S
O2370      V2375   1.895       .  S
O2371      V2376   1.893       .  S
O2371      C2380   1.264   1_655  A
O2372      V2376   1.897       .  S
O2372      C2379   1.264       .  A
O2373      V2376   1.896       .  S
O2373      C2378   1.262   1_655  A
O2374      V2376   1.897       .  S
O2374      C2377   1.264       .  A
C2377      C2620   1.489       .  S
C2378      C2606   1.467       .  S
C2379      C2665   1.484       .  S
C2380      C2676   1.483       .  S
O2381      V2389   1.904       .  S
O2381      C2391   1.266       .  A
O2382      V2389   1.906       .  S
O2382      C2392   1.267       .  A
O2383      V2389   1.899       .  S
O2383      C2393   1.262       .  A
O2384      C2394   1.264       .  A
O2385      C2394   1.267       .  A
O2386      V2390   1.905       .  S
O2386      C2393   1.265       .  A
O2387      V2390   1.893       .  S
O2387      C2392   1.263       .  A
O2388      V2390   1.893   1_545  S
O2388      C2391   1.262   1_545  A
V2389      V2390   2.085       .  T
C2391      C2564   1.484   1_565  S
C2392      C2550   1.489       .  S
C2393      C2578   1.471       .  S
C2394      C2592   1.489       .  S
O2395      V2403   1.900       .  S
O2395      C2405   1.264       .  A
O2396      V2403   1.898       .  S
O2396      C2406   1.263       .  A
O2397      V2403   1.900       .  S
O2397      C2407   1.263       .  A
O2398      V2403   1.905       .  S
O2398      C2408   1.265       .  A
O2399      V2404   1.901       .  S
O2399      C2408   1.265       .  A
O2400      V2404   1.905       .  S
O2400      C2407   1.264       .  A
O2401      V2404   1.902       .  S
O2401      C2406   1.264       .  A
O2402      V2404   1.899       .  S
O2402      C2405   1.264       .  A
V2403      V2404   2.087       .  T
C2405      C2536   1.474       .  S
C2406      C2522   1.474       .  S
C2407      C2581   1.471       .  S
C2408      C2595   1.489       .  S
O2409      V2417   1.900       .  S
O2414      C2421   1.267       .  A
O2415      V2418   1.897       .  S
O2415      C2420   1.262       .  A
C2419      C2648   1.468       .  S
C2420      C2634   1.466       .  S
O2423      V2431   1.900       .  S
O2423      C2433   1.263   1_655  A
O2424      C2434   1.266       .  A
O2425      V2431   1.898   1_554  S
O2426      C2436   1.264       .  A
O2428      V2432   1.901   1_655  S
O2428      C2435   1.265       .  A
O2430      C2433   1.262       .  A
C2433      C2623   1.466       .  S
C2434      C2609   1.487       .  S
C2435      C2466   1.491       .  S
C2436      C2483   1.483       .  S
O2437      V2445   1.900   1_556  S
O2439      V2445   1.892       .  S
O2442      V2446   1.905       .  S
O2442      C2449   1.268   1_565  A
O2443      V2446   1.898       .  S
O2443      C2448   1.262   1_565  A
O2444      C2447   1.263   1_565  A
C2447      C2567   1.468       .  S
C2448      C2553   1.467       .  S
C2449      C2494   1.489       .  S
C2450      C2508   1.487       .  S
O2451      V2459   1.901       .  S
O2451      C2461   1.265       .  A
O2452      C2462   1.265       .  A
O2453      V2459   1.897       .  S
O2454      C2464   1.265       .  A
O2456      V2460   1.902       .  S
O2456      C2463   1.265       .  A
O2457      V2460   1.898       .  S
O2457      C2462   1.263       .  A
O2458      C2461   1.264       .  A
C2461      C2539   1.478       .  S
C2462      C2525   1.481       .  S
C2463      C2469   1.491       .  S
C2464      C2480   1.483       .  S
C2465      C2466   1.406       .  A
C2465      C2470   1.406       .  A
C2465      H2472   1.083       .  S
C2467      C2468   1.406       .  A
C2467      N2474   1.438       .  S
C2468      H2473   1.083       .  S
C2469      C2470   1.416       .  A
C2470      N2471   1.438       .  S
C2479      C2484   1.405       .  A
C2479      H2486   1.084       .  S
C2480      C2481   1.413       .  A
C2481      C2482   1.405       .  A
C2481      N2488   1.438       .  S
C2482      C2483   1.404       .  A
C2482      H2487   1.084       .  S
C2484      N2485   1.438       .  S
N2485      H2489   1.046       .  S
N2485      H2490   1.045       .  S
N2488      H2491   1.046       .  S
N2488      H2492   1.046       .  S
C2493      C2498   1.405       .  A
C2493      H2500   1.083       .  S
C2495      C2496   1.405       .  A
C2495      N2502   1.438       .  S
C2496      H2501   1.083       .  S
C2498      N2499   1.438       .  S
N2499      H2503   1.046       .  S
N2499      H2504   1.045   1_556  S
N2502      H2505   1.045       .  S
N2502      H2506   1.046       .  S
C2507      C2508   1.404   1_565  A
C2507      C2512   1.404       .  A
C2507      H2514   1.083       .  S
C2509      C2510   1.404       .  A
C2509      N2516   1.438       .  S
C2510      H2515   1.083       .  S
C2511      C2512   1.417       .  A
C2512      N2513   1.438       .  S
N2513      H2517   1.046       .  S
N2513      H2518   1.045       .  S
N2516      H2519   1.045   1_556  S
N2516      H2520   1.046       .  S
C2521      C2522   1.401       .  A
C2521      C2526   1.407       .  A
C2521      H2528   1.084       .  S
C2522      C2523   1.410       .  A
C2523      C2524   1.405       .  A
C2523      N2530   1.437       .  S
C2524      C2525   1.404       .  A
C2524      H2529   1.084       .  S
C2525      C2526   1.415       .  A
C2526      N2527   1.438       .  S
N2527      H2531   1.046       .  S
N2527      H2532   1.045       .  S
N2530      H2533   1.045       .  S
N2530      H2534   1.045       .  S
C2535      C2536   1.403       .  A
C2535      C2540   1.405       .  A
C2535      H2542   1.084       .  S
C2536      C2537   1.418       .  A
C2537      C2538   1.401       .  A
C2537      N2544   1.438       .  S
C2538      C2539   1.403       .  A
C2538      H2543   1.084       .  S
C2539      C2540   1.412       .  A
C2540      N2541   1.438       .  S
N2541      H2545   1.046       .  S
N2541      H2546   1.046       .  S
N2544      H2547   1.042       .  S
N2544      H2548   1.046       .  S
C2549      C2550   1.407       .  A
C2549      C2554   1.402       .  A
C2549      H2556   1.084       .  S
C2551      C2552   1.405       .  A
C2551      N2558   1.438       .  S
C2552      H2557   1.084       .  S
C2553      C2554   1.413   1_545  A
C2554      N2555   1.439       .  S
N2555      H2559   1.046       .  S
N2555      H2560   1.043       .  S
N2558      H2561   1.046       .  S
N2558      H2562   1.046       .  S
C2563      C2564   1.406   1_565  A
C2563      C2568   1.406       .  A
C2563      H2570   1.084       .  S
C2565      C2566   1.405       .  A
C2565      N2572   1.438       .  S
C2566      H2571   1.084       .  S
C2567      C2568   1.407   1_545  A
C2568      N2569   1.438       .  S
N2569      H2573   1.046       .  S
N2569      H2574   1.046       .  S
N2572      H2575   1.045       .  S
N2572      H2576   1.046       .  S
C2577      C2578   1.402       .  A
C2577      C2582   1.406       .  A
C2577      H2584   1.084       .  S
C2578      C2579   1.417       .  A
C2579      C2580   1.404       .  A
C2579      N2586   1.439       .  S
C2580      C2581   1.401       .  A
C2580      H2585   1.084       .  S
C2581      C2582   1.407       .  A
C2582      N2583   1.436       .  S
N2583      H2587   1.046       .  S
N2583      H2588   1.046       .  S
N2586      H2589   1.043       .  S
N2586      H2590   1.045       .  S
C2591      C2592   1.405       .  A
C2591      C2596   1.408       .  A
C2591      H2598   1.084       .  S
C2592      C2593   1.416       .  A
C2593      C2594   1.407       .  A
C2593      N2600   1.438       .  S
C2594      C2595   1.405       .  A
C2594      H2599   1.084       .  S
C2595      C2596   1.415       .  A
C2596      N2597   1.438       .  S
N2597      H2601   1.046       .  S
N2597      H2602   1.045       .  S
N2600      H2603   1.045       .  S
N2600      H2604   1.046       .  S
C2605      C2610   1.405       .  A
C2605      H2612   1.084       .  S
C2606      C2607   1.413   1_455  A
C2607      C2608   1.401       .  A
C2607      N2614   1.440       .  S
C2608      C2609   1.407       .  A
C2608      H2613   1.084       .  S
C2610      N2611   1.438       .  S
N2611      H2615   1.046       .  S
N2611      H2616   1.045       .  S
N2614      H2617   1.043       .  S
N2614      H2618   1.046   1_655  S
C2619      C2624   1.400       .  A
C2619      H2626   1.084       .  S
C2620      C2621   1.418       .  A
C2621      C2622   1.405       .  A
C2621      N2628   1.438       .  S
C2622      C2623   1.398   1_655  A
C2622      H2627   1.084       .  S
C2624      N2625   1.439       .  S
N2625      H2629   1.046       .  S
N2625      H2630   1.043       .  S
N2628      H2631   1.046       .  S
N2628      H2632   1.046       .  S
C2633      C2634   1.399       .  A
C2633      C2638   1.406       .  A
C2633      H2640   1.084       .  S
C2635      C2636   1.401       .  A
C2635      N2642   1.439       .  S
C2636      H2641   1.084       .  S
C2637      C2638   1.419       .  A
C2638      N2639   1.438       .  S
C2647      C2652   1.405       .  A
C2647      H2654   1.084       .  S
C2648      C2649   1.414       .  A
C2649      C2650   1.400       .  A
C2649      N2656   1.439       .  S
C2650      C2651   1.406       .  A
C2650      H2655   1.084       .  S
C2652      N2653   1.438       .  S
N2653      H2657   1.046       .  S
N2653      H2658   1.046       .  S
N2656      H2659   1.043       .  S
N2656      H2660   1.046       .  S
C2661      C2662   1.405   1_655  A
C2661      C2666   1.403       .  A
C2661      H2668   1.083       .  S
C2663      C2664   1.403       .  A
C2663      N2670   1.438       .  S
C2664      H2669   1.083       .  S
C2665      C2666   1.415       .  A
C2666      N2667   1.438       .  S
N2667      H2671   1.046       .  S
N2667      H2672   1.045       .  S
N2670      H2673   1.045       .  S
N2670      H2674   1.046       .  S
C2675      C2676   1.405   1_655  A
C2675      C2680   1.403       .  A
C2675      H2682   1.083       .  S
C2677      C2678   1.403       .  A
C2677      N2684   1.438       .  S
C2678      H2683   1.083       .  S
C2679      C2680   1.415       .  A
C2680      N2681   1.438       .  S
N2681      H2685   1.046       .  S
N2681      H2686   1.045       .  S
N2684      H2687   1.045       .  S
N2684      H2688   1.046       .  S
