geometry optimzed in LAMMPS
_audit_creation_date              2020-11-30 
_audit_creation_method            'lammps2cif' 
_symmetry_space_group_name_H-M    'P1' 
_symmetry_Int_Tables_number       1 
_symmetry_cell_setting            triclinic 
loop_ 
_symmetry_equiv_pos_as_xyz 
  x,y,z 
_cell_length_a                    30.82231444 
_cell_length_b                    30.825016875572118 
_cell_length_c                    48.52286503450042 
_cell_angle_alpha                 90.00118152517126 
_cell_angle_beta                  89.99875778701511 
_cell_angle_gamma                 119.99001632434475 
loop_ 
_atom_site_label 
_atom_site_type_symbol 
_atom_site_fract_x 
_atom_site_fract_y 
_atom_site_fract_z 
_atom_site_charge 
N1          N  0.58076392  0.79839491  0.10470074    -0.36300
N2          N  0.55245734  0.84816579  0.14503272    -0.56900
N3          N  0.54646557  0.77764590  0.18751783    -0.36300
N4          N  0.57738233  0.72926857  0.14688998    -0.56900
C5          C  0.59239194  0.84151251  0.09167671     0.27200
C6          C  0.60959972  0.78168923  0.09346814     0.27200
C7          C  0.54449190  0.81299126  0.20350161     0.27200
C8          C  0.55346494  0.74608098  0.20414317     0.27200
C9          C  0.54299805  0.86478561  0.12114345     0.35900
C10         C  0.52698386  0.85628670  0.16517554     0.35900
C11         C  0.58514169  0.70888695  0.12394992     0.35900
C12         C  0.56481505  0.69518883  0.16740666     0.35900
C13         C  0.62933128  0.85272054  0.07215152    -0.21600
C14         C  0.64045229  0.81487483  0.07338700    -0.21600
C15         C  0.54964676  0.80306051  0.23086967    -0.21600
C16         C  0.55482639  0.76093321  0.23126375    -0.21600
C17         C  0.51110897  0.88313579  0.12571933    -0.22700
C18         C  0.50012558  0.87702882  0.15334564    -0.22700
C19         C  0.57769985  0.66180412  0.12980239    -0.22700
C20         C  0.56630514  0.65364525  0.15723924    -0.22700
C21         C  0.56772188  0.86873598  0.09603284    -0.18000
C22         C  0.60416247  0.73442339  0.09864730    -0.18000
C23         C  0.55531153  0.70257900  0.19540163    -0.18000
C24         C  0.53289930  0.85021427  0.19398938    -0.18000
H25         H  0.64596744  0.88436658  0.05821882     0.14900
H26         H  0.66715025  0.81139525  0.06043581     0.14900
H27         H  0.54776034  0.82247071  0.24896586     0.14900
H28         H  0.55856616  0.74311541  0.24959228     0.14900
H29         H  0.49716238  0.89912486  0.11068186     0.13200
H30         H  0.47380062  0.88587023  0.16272760     0.13200
H31         H  0.58209044  0.63657942  0.11609353     0.13200
H32         H  0.56175930  0.62105064  0.16801393     0.13200
H33         H  0.55041835  0.77832861  0.11784561     0.26400
H34         H  0.53802089  0.77204088  0.16667413     0.26400
N35         N  0.58279139  0.80104614  0.44854949    -0.36300
N36         N  0.57743467  0.72991149  0.40757751    -0.56900
N37         N  0.54567147  0.77684633  0.36628093    -0.36300
N38         N  0.55368148  0.84959520  0.40752535    -0.56900
C39         C  0.61041503  0.78368549  0.46069036     0.27200
C40         C  0.59454690  0.84463123  0.46106235     0.27200
C41         C  0.55215635  0.74461040  0.35007824     0.27200
C42         C  0.54318801  0.81130350  0.34982090     0.27200
C43         C  0.58495799  0.70994123  0.43077155     0.35900
C44         C  0.56342932  0.69479231  0.38752804     0.35900
C45         C  0.54435448  0.86656816  0.43126862     0.35900
C46         C  0.52645985  0.85556905  0.38760957     0.35900
C47         C  0.64060620  0.81692836  0.48092856    -0.21600
C48         C  0.63045610  0.85554525  0.48120081    -0.21600
C49         C  0.55264373  0.75811491  0.32273266    -0.21600
C50         C  0.54747816  0.80021541  0.32257586    -0.21600
C51         C  0.57592636  0.66211194  0.42553695    -0.22700
C52         C  0.56371241  0.65296554  0.39825081    -0.22700
C53         C  0.51099180  0.88318133  0.42682095    -0.22700
C54         C  0.49873687  0.87535638  0.39940579    -0.22700
C55         C  0.60476845  0.73613843  0.45582596    -0.18000
C56         C  0.56989176  0.87180534  0.45617034    -0.18000
C57         C  0.53157824  0.84851491  0.35892409    -0.18000
C58         C  0.55379631  0.70144430  0.35943808    -0.18000
H59         H  0.66624192  0.81307072  0.49458377     0.14900
H60         H  0.64673674  0.88731464  0.49505707     0.14900
H61         H  0.55555800  0.73931988  0.30461154     0.14900
H62         H  0.54487894  0.81879203  0.30428220     0.14900
H63         H  0.57955230  0.63685500  0.43958987     0.13200
H64         H  0.55764296  0.61936992  0.38801219     0.13200
H65         H  0.49667699  0.89884612  0.44183860     0.13200
H66         H  0.47096967  0.88227026  0.39014430     0.13200
H67         H  0.55276023  0.78107775  0.43521290     0.26400
H68         H  0.53767772  0.77207110  0.38719992     0.26400
N69         N  0.78503597  0.20144604  0.44903468    -0.36300
N70         N  0.70628410  0.15445342  0.40859139    -0.56900
N71         N  0.77177274  0.22354252  0.36678387    -0.36300
N72         N  0.85166928  0.26990583  0.40769118    -0.56900
C73         C  0.75265418  0.15792507  0.46132991     0.27200
C74         C  0.83020474  0.21660604  0.46039441     0.27200
C75         C  0.73448926  0.18848286  0.35062118     0.27200
C76         C  0.81120016  0.25406703  0.35045086     0.27200
C77         C  0.68036236  0.13900044  0.43251088     0.35900
C78         C  0.67304879  0.14790448  0.38858980     0.35900
C79         C  0.87937587  0.28996275  0.43081612     0.35900
C80         C  0.87270985  0.30475532  0.38753198     0.35900
C81         C  0.77754283  0.14462729  0.48034426    -0.21600
C82         C  0.82686128  0.18193426  0.47973725    -0.21600
C83         C  0.75065952  0.19739000  0.32342718    -0.21600
C84         C  0.79851125  0.23875466  0.32330906    -0.21600
C85         C  0.63049236  0.12310402  0.42811966    -0.22700
C86         C  0.62581104  0.12952849  0.40048132    -0.22700
C87         C  0.91839602  0.33760329  0.42544988    -0.22700
C88         C  0.91500977  0.34662501  0.39811725    -0.22700
C89         C  0.70067475  0.13294182  0.45721900    -0.18000
C90         C  0.87245110  0.26376983  0.45591343    -0.18000
C91         C  0.85622104  0.29754342  0.35945601    -0.18000
C92         C  0.68494737  0.15269440  0.35987023    -0.18000
H93         H  0.76165106  0.11218446  0.49371594     0.14900
H94         H  0.85655617  0.18411295  0.49262181     0.14900
H95         H  0.72975912  0.17792192  0.30524641     0.14900
H96         H  0.82087890  0.25583735  0.30511899     0.14900
H97         H  0.60066096  0.10818618  0.44323016     0.13200
H98         H  0.59116545  0.12226090  0.39100163     0.13200
H99         H  0.94745391  0.36276697  0.43945134     0.13200
H100        H  0.94241422  0.38006670  0.38768768     0.13200
H101        H  0.77548713  0.22288842  0.43649317     0.26400
H102        H  0.76857580  0.23017836  0.38747938     0.26400
N103        N  0.78531381  0.19969150  0.10594088    -0.36300
N104        N  0.70581917  0.15204581  0.14615089    -0.56900
N105        N  0.77034544  0.22281049  0.18777161    -0.36300
N106        N  0.85073289  0.26958005  0.14717306    -0.56900
C107        C  0.75373602  0.15607279  0.09342246     0.27200
C108        C  0.83071437  0.21616243  0.09447825     0.27200
C109        C  0.73273070  0.18862207  0.20405577     0.27200
C110        C  0.80908179  0.25443996  0.20421038     0.27200
C111        C  0.68017372  0.13326583  0.12235378     0.35900
C112        C  0.67166932  0.14303196  0.16610854     0.35900
C113        C  0.87898921  0.28962471  0.12424676     0.35900
C114        C  0.87162941  0.30432363  0.16736096     0.35900
C115        C  0.77930981  0.14423211  0.07410412    -0.21600
C116        C  0.82820249  0.18231529  0.07482474    -0.21600
C117        C  0.74789130  0.19935305  0.23137555    -0.21600
C118        C  0.79556370  0.24075610  0.23146025    -0.21600
C119        C  0.62955284  0.11250728  0.12678408    -0.22700
C120        C  0.62394264  0.11908130  0.15421085    -0.22700
C121        C  0.91814916  0.33709774  0.12977159    -0.22700
C122        C  0.91443105  0.34596714  0.15703761    -0.22700
C123        C  0.70175300  0.12930976  0.09755911    -0.18000
C124        C  0.87263977  0.26356049  0.09922593    -0.18000
C125        C  0.85436940  0.29748458  0.19521917    -0.18000
C126        C  0.68371713  0.15152267  0.19487481    -0.18000
H127        H  0.76413181  0.11209510  0.06051868     0.14900
H128        H  0.85819782  0.18547974  0.06183269     0.14900
H129        H  0.72644072  0.18092064  0.24961337     0.14900
H130        H  0.81725487  0.25903194  0.24967849     0.14900
H131        H  0.59971108  0.09414509  0.11183527     0.13200
H132        H  0.58796589  0.10798316  0.16321186     0.13200
H133        H  0.94762484  0.36219165  0.11595352     0.13200
H134        H  0.94196014  0.37917139  0.16759120     0.13200
H135        H  0.77500590  0.22023960  0.11869140     0.26400
H136        H  0.76775772  0.22802327  0.16684608     0.26400
N137        N  0.61639183  0.99998815  0.06936744    -0.36300
N138        N  0.57730409  0.92507611  0.02621707    -0.56900
N139        N  0.61489393  0.00216436  0.48359068    -0.36300
N140        N  0.65532438  0.07721663  0.02699417    -0.56900
C141        C  0.60886138  0.95875043  0.08329864     0.27200
C142        C  0.65105469  0.04005360  0.08367918     0.27200
C143        C  0.60734600  0.96164782  0.46888312     0.27200
C144        C  0.64811348  0.04305185  0.46923880     0.27200
C145        C  0.55769698  0.89470421  0.04837134     0.35900
C146        C  0.55785385  0.89591440  0.00364660     0.35900
C147        C  0.66703863  0.10657205  0.04963623     0.35900
C148        C  0.66605724  0.10775007  0.00493666     0.35900
C149        C  0.63858007  0.97285781  0.10674145    -0.21600
C150        C  0.66514699  0.02409490  0.10698781    -0.21600
C151        C  0.63510210  0.97705826  0.44472727    -0.21600
C152        C  0.66072940  0.02829430  0.44493661    -0.21600
C153        C  0.52469672  0.84622530  0.03983619    -0.22700
C154        C  0.52479367  0.84698952  0.01149424    -0.22700
C155        C  0.68437364  0.15586225  0.04194527    -0.22700
C156        C  0.68381985  0.15661925  0.01361896    -0.22700
C157        C  0.57567526  0.90858930  0.07564935    -0.18000
C158        C  0.66996774  0.09079915  0.07662429    -0.18000
C159        C  0.66791510  0.09346078  0.47742923    -0.18000
C160        C  0.57618734  0.91099860  0.47653750    -0.18000
H161        H  0.64156714  0.94880349  0.12194664     0.14900
H162        H  0.69236729  0.04692871  0.12243902     0.14900
H163        H  0.63766641  0.95392572  0.42877062     0.14900
H164        H  0.68673149  0.05184206  0.42919844     0.14900
H165        H  0.50485797  0.81328313  0.05265740     0.13200
H166        H  0.50501863  0.81474273  0.99817153     0.13200
H167        H  0.69846753  0.18824644  0.05530235     0.13200
H168        H  0.69740706  0.18969504  0.00085269     0.13200
H169        H  0.59623185  0.00082893  0.05235177     0.26400
H170        H  0.59613374  0.00195545  0.00147113     0.26400
N171        N  0.79809297  0.58297501  0.44899423    -0.36300
N172        N  0.84800912  0.55335148  0.40839963    -0.56900
N173        N  0.77716251  0.54553553  0.36670186    -0.36300
N174        N  0.72868026  0.57772969  0.40764885    -0.56900
C175        C  0.84101357  0.59414762  0.46199256     0.27200
C176        C  0.78050810  0.61047087  0.46106708     0.27200
C177        C  0.81234844  0.54365351  0.35045616     0.27200
C178        C  0.74527017  0.55228567  0.35031127     0.27200
C179        C  0.86423520  0.54421465  0.43246346     0.35900
C180        C  0.85686109  0.52791575  0.38853015     0.35900
C181        C  0.70801408  0.58561106  0.43047869     0.35900
C182        C  0.69423308  0.56360279  0.38724582     0.35900
C183        C  0.85134346  0.62961351  0.48235799    -0.21600
C184        C  0.81301891  0.64008861  0.48171100    -0.21600
C185        C  0.80191407  0.54856315  0.32316704    -0.21600
C186        C  0.75966424  0.55352868  0.32307400    -0.21600
C187        C  0.88327474  0.51277081  0.42822949    -0.22700
C188        C  0.87807448  0.50177161  0.40064236    -0.22700
C189        C  0.66050390  0.57683130  0.42466185    -0.22700
C190        C  0.65218465  0.56426617  0.39739194    -0.22700
C191        C  0.86806074  0.56932378  0.45739617    -0.18000
C192        C  0.73323986  0.60504467  0.45580481    -0.18000
C193        C  0.70169224  0.55370015  0.35931601    -0.18000
C194        C  0.85001411  0.53255100  0.35972720    -0.18000
H195        H  0.88248191  0.64534425  0.49664702     0.14900
H196        H  0.80879048  0.66543164  0.49542739     0.14900
H197        H  0.82118026  0.54679071  0.30496696     0.14900
H198        H  0.74145086  0.55703971  0.30485234     0.14900
H199        H  0.89938237  0.49930108  0.44347034     0.13200
H200        H  0.88769866  0.47581477  0.39154953     0.13200
H201        H  0.63495148  0.58081735  0.43831265     0.13200
H202        H  0.61900115  0.55840740  0.38676017     0.13200
H203        H  0.77867829  0.55328098  0.43546078     0.26400
H204        H  0.77158010  0.53716385  0.38750212     0.26400
N205        N  0.79708081  0.58198190  0.10548208    -0.36300
N206        N  0.72875226  0.57890554  0.14704605    -0.56900
N207        N  0.77678068  0.54662263  0.18786717    -0.36300
N208        N  0.84606664  0.55172843  0.14591611    -0.56900
C209        C  0.78045735  0.61059580  0.09383199     0.27200
C210        C  0.84062006  0.59381908  0.09296201     0.27200
C211        C  0.74638104  0.55539174  0.20436895     0.27200
C212        C  0.81214696  0.54467508  0.20388310     0.27200
C213        C  0.70804499  0.58670687  0.12422782     0.35900
C214        C  0.69505208  0.56649822  0.16771892     0.35900
C215        C  0.86188465  0.54209443  0.12188322     0.35900
C216        C  0.85331376  0.52512007  0.16569622     0.35900
C217        C  0.81414218  0.64160850  0.07401364    -0.21600
C218        C  0.85234982  0.63092013  0.07344155    -0.21600
C219        C  0.76207392  0.55821066  0.23144331    -0.21600
C220        C  0.80354593  0.55195042  0.23113125    -0.21600
C221        C  0.66118976  0.57960047  0.13034813    -0.22700
C222        C  0.65348225  0.56828634  0.15781979    -0.22700
C223        C  0.87878510  0.50884386  0.12597960    -0.22700
C224        C  0.87259730  0.49726073  0.15354374    -0.22700
C225        C  0.73318488  0.60524015  0.09876884    -0.18000
C226        C  0.86700654  0.56825247  0.09723363    -0.18000
C227        C  0.84810501  0.53133096  0.19447269    -0.18000
C228        C  0.70280139  0.55691331  0.19562906    -0.18000
H229        H  0.81083751  0.66817486  0.06086063     0.14900
H230        H  0.88437109  0.64761983  0.05976736     0.14900
H231        H  0.74522615  0.56359639  0.24970801     0.14900
H232        H  0.82337144  0.55081405  0.24922474     0.14900
H233        H  0.63584749  0.58412198  0.11680022     0.13200
H234        H  0.62120039  0.56403270  0.16883378     0.13200
H235        H  0.89407659  0.49459799  0.11069545     0.13200
H236        H  0.88059685  0.47019700  0.16275669     0.13200
H237        H  0.77669745  0.55140724  0.11844231     0.26400
H238        H  0.76989925  0.53671841  0.16720649     0.26400
N239        N  0.19782718  0.78442758  0.10596935    -0.36300
N240        N  0.15091273  0.70559000  0.14600495    -0.56900
N241        N  0.22377895  0.76965638  0.18756891    -0.36300
N242        N  0.26951212  0.84955199  0.14716572    -0.56900
C243        C  0.15419315  0.75292560  0.09344639     0.27200
C244        C  0.21439195  0.82988564  0.09467819     0.27200
C245        C  0.18910458  0.73226516  0.20376430     0.27200
C246        C  0.25555925  0.80837308  0.20400725     0.27200
C247        C  0.13339608  0.67989815  0.12211284     0.35900
C248        C  0.14507783  0.67191152  0.16558207     0.35900
C249        C  0.28924605  0.87672331  0.12386965     0.35900
C250        C  0.30559706  0.86952152  0.16678128     0.35900
C251        C  0.14235298  0.77861550  0.07420653    -0.21600
C252        C  0.18054917  0.82756059  0.07503785    -0.21600
C253        C  0.19960929  0.74740743  0.23108284    -0.21600
C254        C  0.24146565  0.79492133  0.23123325    -0.21600
C255        C  0.11668950  0.62979127  0.12610977    -0.22700
C256        C  0.12487936  0.62466679  0.15340816    -0.22700
C257        C  0.33792522  0.91415788  0.12852471    -0.22700
C258        C  0.34802975  0.91044707  0.15560375    -0.22700
C259        C  0.12779380  0.70094571  0.09757001    -0.18000
C260        C  0.26221405  0.87126855  0.09929705    -0.18000
C261        C  0.29896382  0.85343049  0.19491757    -0.18000
C262        C  0.15210582  0.68338146  0.19436184    -0.18000
H263        H  0.11030391  0.76347751  0.06055356     0.14900
H264        H  0.18392695  0.85761849  0.06202456     0.14900
H265        H  0.18077874  0.72597258  0.24925668     0.14900
H266        H  0.25975169  0.81649740  0.24947721     0.14900
H267        H  0.10055911  0.60016147  0.11090215     0.13200
H268        H  0.11770497  0.58969898  0.16238695     0.13200
H269        H  0.36316148  0.94247682  0.11420135     0.13200
H270        H  0.38277367  0.93673311  0.16534592     0.13200
H271        H  0.21850856  0.77405089  0.11857283     0.26400
H272        H  0.22897996  0.76672455  0.16665049     0.26400
N273        N  0.19957063  0.78352981  0.44932448    -0.36300
N274        N  0.27015936  0.84885303  0.40804165    -0.56900
N275        N  0.22193256  0.76979231  0.36689926    -0.36300
N276        N  0.14993741  0.70526477  0.40847884    -0.56900
C277        C  0.21699909  0.82868898  0.46124198     0.27200
C278        C  0.15599587  0.75205919  0.46193753     0.27200
C279        C  0.25449229  0.80816564  0.35053550     0.27200
C280        C  0.18759978  0.73238824  0.35055923     0.27200
C281        C  0.29034679  0.87687144  0.43106696     0.35900
C282        C  0.30456262  0.87023326  0.38765617     0.35900
C283        C  0.13311626  0.67937326  0.43237917     0.35900
C284        C  0.14269842  0.67160100  0.38854335     0.35900
C285        C  0.18374614  0.82612392  0.48134885    -0.21600
C286        C  0.14511491  0.77746870  0.48184232    -0.21600
C287        C  0.24117263  0.79451816  0.32324517    -0.21600
C288        C  0.19904535  0.74726006  0.32325261    -0.21600
C289        C  0.33761446  0.91631547  0.42535840    -0.22700
C290        C  0.34605759  0.91311869  0.39795577    -0.22700
C291        C  0.11533168  0.62916568  0.42800552    -0.22700
C292        C  0.12203868  0.62412062  0.40048800    -0.22700
C293        C  0.26456687  0.87041751  0.45632456    -0.18000
C294        C  0.12866266  0.70021018  0.45733310    -0.18000
C295        C  0.15022214  0.68353341  0.35977066    -0.18000
C296        C  0.29779211  0.85328413  0.35966987    -0.18000
H297        H  0.18758256  0.85588687  0.99477393     0.14900
H298        H  0.11331566  0.76235769  0.99567319     0.14900
H299        H  0.26016782  0.81581049  0.30504838     0.14900
H300        H  0.18073623  0.72573688  0.30501009     0.14900
H301        H  0.36283294  0.94577086  0.43914370     0.13200
H302        H  0.37889111  0.94101145  0.38728258     0.13200
H303        H  0.09942127  0.59936850  0.44312304     0.13200
H304        H  0.11379700  0.58898280  0.39131700     0.13200
H305        H  0.21941587  0.77315420  0.43608063     0.26400
H306        H  0.22643123  0.76709490  0.38788706     0.26400
N307        N  0.41674060  0.21805405  0.10635714    -0.36300
N308        N  0.42028217  0.15165133  0.14758031    -0.56900
N309        N  0.45423034  0.23120022  0.18846257    -0.36300
N310        N  0.44828005  0.29663110  0.14693857    -0.56900
C311        C  0.38750919  0.17290726  0.09471384     0.27200
C312        C  0.40594369  0.25051313  0.09378726     0.27200
C313        C  0.44668551  0.19222439  0.20476781     0.27200
C314        C  0.45756718  0.26866651  0.20478768     0.27200
C315        C  0.41313713  0.12455953  0.12426755     0.35900
C316        C  0.43575766  0.13136434  0.16734742     0.35900
C317        C  0.45822386  0.32272954  0.12308506     0.35900
C318        C  0.47603972  0.32967932  0.16679448     0.35900
C319        C  0.35713577  0.17645575  0.07478502    -0.21600
C320        C  0.36893120  0.22575165  0.07414853    -0.21600
C321        C  0.44623286  0.20549459  0.23204850    -0.21600
C322        C  0.45266204  0.25327238  0.23206450    -0.21600
C323        C  0.42393594  0.08684940  0.12908038    -0.22700
C324        C  0.43719817  0.09034406  0.15625859    -0.22700
C325        C  0.49267798  0.37248164  0.12741895    -0.22700
C326        C  0.50480457  0.37690367  0.15490477    -0.22700
C327        C  0.39241798  0.13056344  0.09948151    -0.18000
C328        C  0.43226669  0.30249652  0.09824015    -0.18000
C329        C  0.47042350  0.31778759  0.19551292    -0.18000
C330        C  0.44481296  0.14726905  0.19552638    -0.18000
H331        H  0.33045841  0.14695187  0.06149551     0.14900
H332        H  0.35299180  0.24170473  0.06037343     0.14900
H333        H  0.44275536  0.18370712  0.25022691     0.14900
H334        H  0.45580808  0.27470779  0.25032684     0.14900
H335        H  0.42101493  0.05857098  0.11477582     0.13200
H336        H  0.44523155  0.06387363  0.16616637     0.13200
H337        H  0.50768144  0.40230605  0.11230691     0.13200
H338        H  0.53294770  0.41128543  0.16428038     0.13200
H339        H  0.44717553  0.22763042  0.11934745     0.26400
H340        H  0.46250358  0.23415967  0.16749558     0.26400
N341        N  0.41679855  0.21618602  0.45008927    -0.36300
N342        N  0.42239541  0.15126048  0.40869957    -0.56900
N343        N  0.45447741  0.23066252  0.36801539    -0.36300
N344        N  0.44651177  0.29458052  0.40974537    -0.56900
C345        C  0.38803627  0.17081061  0.46147377     0.27200
C346        C  0.40505235  0.24774884  0.46283370     0.27200
C347        C  0.44668715  0.19161744  0.35162768     0.27200
C348        C  0.45555596  0.26736589  0.35186346     0.27200
C349        C  0.41504165  0.12372724  0.43184394     0.35900
C350        C  0.43747018  0.13097798  0.38873057     0.35900
C351        C  0.45592006  0.32042263  0.43366878     0.35900
C352        C  0.47331710  0.32817121  0.38988591     0.35900
C353        C  0.35697818  0.17328299  0.48138642    -0.21600
C354        C  0.36800798  0.22226305  0.48235787    -0.21600
C355        C  0.44373741  0.20408151  0.32448088    -0.21600
C356        C  0.44888098  0.25135488  0.32463098    -0.21600
C357        C  0.42536553  0.08577853  0.42673966    -0.22700
C358        C  0.43843531  0.08951733  0.39953097    -0.22700
C359        C  0.48906916  0.37050928  0.42940216    -0.22700
C360        C  0.50092228  0.37549087  0.40188148    -0.22700
C361        C  0.39412118  0.12929883  0.45664695    -0.18000
C362        C  0.43039772  0.29959932  0.45852455    -0.18000
C363        C  0.46776809  0.31641065  0.36112546    -0.18000
C364        C  0.44605162  0.14702187  0.36058699    -0.18000
H365        H  0.33042384  0.14329719  0.99448623     0.14900
H366        H  0.35150080  0.23752208  0.99622321     0.14900
H367        H  0.43906505  0.18193678  0.30626947     0.14900
H368        H  0.44966351  0.27194612  0.30644049     0.14900
H369        H  0.42195272  0.05700807  0.44082010     0.13200
H370        H  0.44569886  0.06271425  0.38938417     0.13200
H371        H  0.50333930  0.40021838  0.44458170     0.13200
H372        H  0.52817778  0.41039723  0.39261172     0.13200
H373        H  0.44740729  0.22649388  0.43722400     0.26400
H374        H  0.46422116  0.23423484  0.38862586     0.26400
N375        N  0.38920840  0.38930074  0.07077213    -0.36300
N376        N  0.42402089  0.34791660  0.02824812    -0.56900
N377        N  0.38372352  0.38326513  0.48531087    -0.36300
N378        N  0.34920052  0.42491116  0.02746223    -0.56900
C379        C  0.39525055  0.35510087  0.08521862     0.27200
C380        C  0.35534967  0.39655916  0.08471780     0.27200
C381        C  0.38996444  0.34867798  0.47153938     0.27200
C382        C  0.34891302  0.38889313  0.47130971     0.27200
C383        C  0.44393215  0.33812515  0.05058766     0.35900
C384        C  0.44236881  0.33626616  0.00590233     0.35900
C385        C  0.34087110  0.44638537  0.04955704     0.35900
C386        C  0.33731811  0.44263338  0.00494798     0.35900
C387        C  0.36572051  0.34132622  0.10871347    -0.21600
C388        C  0.34049382  0.36734646  0.10837042    -0.21600
C389        C  0.35923805  0.33260677  0.44847712    -0.21600
C390        C  0.33329202  0.35795215  0.44835152    -0.21600
C391        C  0.47602336  0.32126517  0.04240460    -0.22700
C392        C  0.47510051  0.32016450  0.01406191    -0.22700
C393        C  0.32499110  0.47911464  0.04100657    -0.22700
C394        C  0.32266116  0.47666809  0.01269028    -0.22700
C395        C  0.42642660  0.33557657  0.07780038    -0.18000
C396        C  0.33739960  0.42889153  0.07684552    -0.18000
C397        C  0.33169709  0.42212619  0.47826924    -0.18000
C398        C  0.42325830  0.33173851  0.47889763    -0.18000
H399        H  0.36170820  0.31436778  0.12424190     0.14900
H400        H  0.31342246  0.36414156  0.12361376     0.14900
H401        H  0.35538229  0.30501486  0.43340652     0.14900
H402        H  0.30572257  0.35367437  0.43315363     0.14900
H403        H  0.49570624  0.30837047  0.05551261     0.13200
H404        H  0.49394713  0.30623986  0.00101788     0.13200
H405        H  0.31311503  0.49992498  0.05390059     0.13200
H406        H  0.30892203  0.49543077  0.99944561     0.13200
H407        H  0.40937896  0.40895407  0.05342167     0.26400
H408        H  0.40512647  0.40482188  0.00187558     0.26400
N409        N  0.21682857  0.41772372  0.44944507    -0.36300
N410        N  0.15137127  0.42158316  0.40772422    -0.56900
N411        N  0.23075785  0.45193256  0.36683436    -0.36300
N412        N  0.29520991  0.44604016  0.40884974    -0.56900
C413        C  0.17157120  0.39010539  0.46125266     0.27200
C414        C  0.24802132  0.40541048  0.46222322     0.27200
C415        C  0.19233256  0.44529322  0.35026214     0.27200
C416        C  0.26840812  0.45508999  0.35069633     0.27200
C417        C  0.12278114  0.41355788  0.43049547     0.35900
C418        C  0.12935040  0.43278020  0.38690438     0.35900
C419        C  0.32105043  0.45385519  0.43265808     0.35900
C420        C  0.32924593  0.47097809  0.38882768     0.35900
C421        C  0.17379993  0.35935839  0.48142826    -0.21600
C422        C  0.22237215  0.36920713  0.48210033    -0.21600
C423        C  0.20616273  0.44520637  0.32306765    -0.21600
C424        C  0.25363963  0.45097276  0.32332972    -0.21600
C425        C  0.08219933  0.41925053  0.42417793    -0.22700
C426        C  0.08541584  0.42986445  0.39662841    -0.22700
C427        C  0.37158098  0.48396242  0.42817767    -0.22700
C428        C  0.37698372  0.49558047  0.40070753    -0.22700
C429        C  0.12984322  0.39573426  0.45606933    -0.18000
C430        C  0.29979266  0.42926402  0.45765044    -0.18000
C431        C  0.31721503  0.46670868  0.36005550    -0.18000
C432        C  0.14688783  0.44297717  0.35906647    -0.18000
H433        H  0.14380159  0.33336909  0.49470943     0.14900
H434        H  0.23727001  0.35234787  0.49595344     0.14900
H435        H  0.18479621  0.44209407  0.30476150     0.14900
H436        H  0.27526576  0.45393834  0.30517898     0.14900
H437        H  0.05202166  0.41414626  0.43764343     0.13200
H438        H  0.05692901  0.43305775  0.38540673     0.13200
H439        H  0.40145398  0.49626967  0.44317586     0.13200
H440        H  0.41280681  0.52087925  0.39168275     0.13200
H441        H  0.22735763  0.44791062  0.43610508     0.26400
H442        H  0.23323957  0.45956814  0.38781551     0.26400
N443        N  0.21983086  0.42009733  0.10491604    -0.36300
N444        N  0.29807753  0.45036299  0.14586030    -0.56900
N445        N  0.23290840  0.45537928  0.18757308    -0.36300
N446        N  0.15345295  0.42235673  0.14651604    -0.56900
C447        C  0.25268353  0.41049432  0.09182464     0.27200
C448        C  0.17489175  0.39130242  0.09291112     0.27200
C449        C  0.26921052  0.45594394  0.20387158     0.27200
C450        C  0.19343582  0.44689176  0.20376111     0.27200
C451        C  0.32461662  0.46002060  0.12216832     0.35900
C452        C  0.33139501  0.47474431  0.16629568     0.35900
C453        C  0.12505692  0.41361961  0.12357282     0.35900
C454        C  0.13230865  0.43621096  0.16661962     0.35900
C455        C  0.22845770  0.37501044  0.07135773    -0.21600
C456        C  0.17911196  0.36273973  0.07210311    -0.21600
C457        C  0.25243510  0.44817878  0.23096731    -0.21600
C458        C  0.20515716  0.44297377  0.23090686    -0.21600
C459        C  0.37491035  0.49087860  0.12716830    -0.22700
C460        C  0.37938562  0.50097609  0.15484014    -0.22700
C461        C  0.08563762  0.42156701  0.12903968    -0.22700
C462        C  0.08942130  0.43469968  0.15619228    -0.22700
C463        C  0.30448022  0.43572196  0.09690030    -0.18000
C464        C  0.13174290  0.39444812  0.09840148    -0.18000
C465        C  0.14884860  0.44598534  0.19462959    -0.18000
C466        C  0.31849721  0.46839287  0.19497608    -0.18000
H467        H  0.24467161  0.36004070  0.05710570     0.14900
H468        H  0.14993817  0.33670291  0.05842801     0.14900
H469        H  0.27245891  0.44808299  0.24921729     0.14900
H470        H  0.18239224  0.43730360  0.24897122     0.14900
H471        H  0.40525370  0.50447727  0.11239771     0.13200
H472        H  0.41471145  0.52636775  0.16435445     0.13200
H473        H  0.05606587  0.41687537  0.11520491     0.13200
H474        H  0.06169589  0.44022265  0.16662114     0.13200
H475        H  0.22897099  0.44925226  0.11874924     0.26400
H476        H  0.23683361  0.46587571  0.16697782     0.26400
N477        N  0.00086530  0.33282622  0.48598710    -0.36300
N478        N  0.07693143  0.37283336  0.02737736    -0.56900
N479        N  0.00174609  0.33205306  0.06918259    -0.36300
N480        N  0.92535157  0.29415648  0.02765462    -0.56900
C481        C  0.04175486  0.33999110  0.47210205     0.27200
C482        C  0.96065769  0.29771443  0.47220378     0.27200
C483        C  0.04271885  0.33879308  0.08291910     0.27200
C484        C  0.96132728  0.29779249  0.08323154     0.27200
C485        C  0.10376378  0.39795091  0.00504677     0.35900
C486        C  0.10452743  0.39683174  0.04971210     0.35900
C487        C  0.89749857  0.29034269  0.00534830     0.35900
C488        C  0.89799157  0.29086927  0.05006816     0.35900
C489        C  0.02758043  0.30814950  0.44954850    -0.21600
C490        C  0.97599826  0.28135093  0.44957938    -0.21600
C491        C  0.02827006  0.30765417  0.10579397    -0.21600
C492        C  0.97658890  0.28168966  0.10601921    -0.21600
C493        C  0.14865577  0.43905740  0.01317766    -0.22700
C494        C  0.14911865  0.43838671  0.04160967    -0.22700
C495        C  0.85211438  0.28529328  0.01356457    -0.22700
C496        C  0.85244420  0.28568938  0.04200686    -0.22700
C497        C  0.09057968  0.37878484  0.47797334    -0.18000
C498        C  0.91116332  0.28532375  0.47818174    -0.18000
C499        C  0.91177037  0.28565433  0.07717968    -0.18000
C500        C  0.09197398  0.37679378  0.07664576    -0.18000
H501        H  0.05178192  0.30583466  0.43417538     0.14900
H502        H  0.95248308  0.25426092  0.43424637     0.14900
H503        H  0.05238654  0.30524703  0.12118911     0.14900
H504        H  0.95299955  0.25525489  0.12159229     0.14900
H505        H  0.17872706  0.46533956  0.00003854     0.13200
H506        H  0.17957118  0.46417865  0.05471192     0.13200
H507        H  0.82143650  0.28018105  0.00051143     0.13200
H508        H  0.82199736  0.28082834  0.05518276     0.13200
H509        H  0.00028281  0.35584464  0.00157772     0.26400
H510        H  0.00128571  0.35480532  0.05341658     0.26400
N511        N  0.33058309  0.00077478  0.06976879    -0.36300
N512        N  0.29425551  0.92440925  0.02780681    -0.56900
N513        N  0.33273389  0.99990443  0.48609621    -0.36300
N514        N  0.36995331  0.07625399  0.02805646    -0.56900
C515        C  0.29706107  0.96008500  0.08392502     0.27200
C516        C  0.33793915  0.04144813  0.08408127     0.27200
C517        C  0.29914328  0.95933565  0.47187627     0.27200
C518        C  0.33985810  0.04054470  0.47194249     0.27200
C519        C  0.28993373  0.89685112  0.05032305     0.35900
C520        C  0.29132224  0.89660868  0.00561712     0.35900
C521        C  0.39362606  0.10420653  0.05041233     0.35900
C522        C  0.39487270  0.10342211  0.00574146     0.35900
C523        C  0.28230332  0.97492817  0.10743108    -0.21600
C524        C  0.30824495  0.02653704  0.10753133    -0.21600
C525        C  0.28393242  0.97425428  0.44858793    -0.21600
C526        C  0.30990135  0.02583005  0.44858886    -0.21600
C527        C  0.28479415  0.85124375  0.04245636    -0.22700
C528        C  0.28576433  0.85112786  0.01405440    -0.22700
C529        C  0.43434799  0.14938088  0.04230635    -0.22700
C530        C  0.43516512  0.14886782  0.01392227    -0.22700
C531        C  0.28437564  0.91054300  0.07739473    -0.18000
C532        C  0.37477849  0.09101949  0.07757061    -0.18000
C533        C  0.37681111  0.08989836  0.47847356    -0.23400
C534        C  0.28673939  0.90989573  0.47827119    -0.18000
H535        H  0.25675218  0.95109762  0.12325931     0.14900
H536        H  0.30657543  0.05029600  0.12342314     0.14900
H537        H  0.25811466  0.95051007  0.43283025     0.14900
H538        H  0.30804162  0.04970754  0.43283950     0.14900
H539        H  0.27925160  0.82066560  0.05572611     0.13200
H540        H  0.28099464  0.82042520  0.00113425     0.13200
H541        H  0.45980699  0.18003803  0.05539890     0.13200
H542        H  0.46124666  0.17913977  0.00082128     0.13200
H543        H  0.35246364  0.00068762  0.05342195     0.26400
H544        H  0.35479408  0.99994113  0.00239895     0.26400
N545        N  0.99827422  0.61569919  0.48457653    -0.36300
N546        N  0.07382530  0.65524820  0.02744167    -0.56900
N547        N  0.99768738  0.61537743  0.07038136    -0.36300
N548        N  0.92196715  0.57739352  0.02742727    -0.56900
C549        C  0.03884720  0.64893950  0.47005134     0.27200
C550        C  0.95757223  0.60817520  0.47015398     0.27200
C551        C  0.03809676  0.64942463  0.08471350     0.27200
C552        C  0.95678615  0.60773516  0.08467869     0.27200
C553        C  0.10377588  0.66534982  0.00515862     0.35900
C554        C  0.10350103  0.66576988  0.04986717     0.35900
C555        C  0.89229525  0.55831214  0.00501979     0.35900
C556        C  0.89195762  0.55794943  0.04968912     0.35900
C557        C  0.02371971  0.66177789  0.44597088    -0.21600
C558        C  0.97251100  0.63615960  0.44605064    -0.21600
C559        C  0.02269710  0.66271169  0.10853980    -0.21600
C560        C  0.97143683  0.63644595  0.10851813    -0.21600
C561        C  0.15249985  0.68145870  0.01347711    -0.22700
C562        C  0.15233363  0.68176572  0.04181042    -0.22700
C563        C  0.84334975  0.52577840  0.01307619    -0.22700
C564        C  0.84313265  0.52556693  0.04139836    -0.22700
C565        C  0.08928621  0.66804940  0.47781657    -0.18000
C566        C  0.90717572  0.57640534  0.47787677    -0.18000
C567        C  0.90646783  0.57559123  0.07692156    -0.18000
C568        C  0.08863356  0.66873767  0.07706142    -0.18000
H569        H  0.04701430  0.68772003  0.43014597     0.14900
H570        H  0.94909196  0.63871360  0.43026562     0.14900
H571        H  0.04588636  0.68933374  0.12414174     0.14900
H572        H  0.94774914  0.63910919  0.12409603     0.14900
H573        H  0.18515991  0.69408233  0.00047201     0.13200
H574        H  0.18483505  0.69462782  0.05496950     0.13200
H575        H  0.81077951  0.50643692  0.99993184     0.13200
H576        H  0.81037052  0.50603712  0.05438993     0.13200
H577        H  0.99835085  0.59652973  0.00221677     0.26400
H578        H  0.99806834  0.59589254  0.05294079     0.26400
N579        N  0.66505412  0.66624647  0.06887556    -0.36300
N580        N  0.62648751  0.70378502  0.02718576    -0.56900
N581        N  0.66462402  0.66634900  0.48534309    -0.36300
N582        N  0.70140090  0.62707814  0.02718091    -0.56900
C583        C  0.65864259  0.70041608  0.08280994     0.27200
C584        C  0.69921017  0.65979595  0.08282739     0.27200
C585        C  0.65852770  0.70081272  0.47141213     0.27200
C586        C  0.69827978  0.65919860  0.47127939     0.27200
C587        C  0.60214835  0.70679151  0.04956056     0.35900
C588        C  0.60274037  0.70801386  0.00487510     0.35900
C589        C  0.70525399  0.60317184  0.04956320     0.35900
C590        C  0.70457906  0.60280227  0.00480261     0.35900
C591        C  0.68983521  0.71681388  0.10566257    -0.21600
C592        C  0.71563749  0.69102376  0.10566394    -0.21600
C593        C  0.68920014  0.71639836  0.44834713    -0.21600
C594        C  0.71442002  0.68999847  0.44826189    -0.21600
C595        C  0.56192851  0.71217047  0.04145762    -0.22700
C596        C  0.56237151  0.71305245  0.01304569    -0.22700
C597        C  0.71015961  0.56272403  0.04141123    -0.22700
C598        C  0.70965773  0.56244183  0.01297912    -0.22700
C599        C  0.62100574  0.71206143  0.07669810    -0.18000
C600        C  0.71088591  0.62216748  0.07672749    -0.18000
C601        C  0.71027823  0.62176379  0.47762231    -0.18000
C602        C  0.62174854  0.71370674  0.47776821    -0.18000
H603        H  0.69243509  0.74325019  0.12116839     0.14900
H604        H  0.74208822  0.69364412  0.12116694     0.14900
H605        H  0.69196553  0.74285783  0.43281110     0.14900
H606        H  0.74053075  0.69217572  0.43266302     0.14900
H607        H  0.53630460  0.71703223  0.05460006     0.13200
H608        H  0.53707617  0.71857099  0.99998267     0.13200
H609        H  0.71543060  0.53730843  0.05450502     0.13200
H610        H  0.71458701  0.53682241  0.99987140     0.13200
H611        H  0.64208656  0.64335964  0.05306900     0.26400
H612        H  0.64200385  0.64392767  0.00137863     0.26400
N613        N  0.39649960  0.45360453  0.24464383    -0.05800
N614        N  0.35072989  0.44401191  0.23768543    -0.58000
N615        N  0.48806489  0.42918425  0.22738183    -0.05500
N616        N  0.50217142  0.40707383  0.20920766    -0.60100
N617        N  0.45591164  0.39611531  0.24482391    -0.05100
N618        N  0.44720088  0.35057430  0.23816003    -0.57900
N619        N  0.42955999  0.48701660  0.22769716    -0.04800
N620        N  0.40734366  0.50141818  0.20980987    -0.60400
C621        C  0.35806632  0.47455922  0.21565121     0.96300
C622        C  0.47686317  0.35794491  0.21573465     0.96100
N623        N  0.62152895  0.56368715  0.24506391    -0.06000
N624        N  0.66788782  0.57523851  0.23849291    -0.58500
N625        N  0.53040565  0.58922008  0.22751916    -0.04200
N626        N  0.51745816  0.61265106  0.20941437    -0.59800
N627        N  0.56336084  0.62151280  0.24495862    -0.06100
N628        N  0.57456751  0.66779459  0.23829279    -0.58800
N629        N  0.58944761  0.53063251  0.22759958    -0.03800
N630        N  0.61307541  0.51787862  0.20955928    -0.59900
Mn631      Mn  0.50927227  0.50893707  0.22701556     1.18400
C632        C  0.66216555  0.54629417  0.21611270     0.98400
C633        C  0.54550334  0.66185377  0.21589005     0.99100
N634        N  0.45485942  0.39534845  0.31112464    -0.06100
N635        N  0.44513586  0.34958875  0.31816853    -0.62400
N636        N  0.42888921  0.48657711  0.32780039    -0.04900
N637        N  0.40638968  0.50086076  0.34557254    -0.63100
N638        N  0.39608024  0.45327715  0.31071987    -0.05600
N639        N  0.35020896  0.44350359  0.31746923    -0.62700
N640        N  0.48687283  0.42829253  0.32865643    -0.04500
N641        N  0.49985549  0.40589895  0.34728036    -0.63300
Mn642      Mn  0.42375890  0.42238828  0.27778945     1.10700
C643        C  0.47408040  0.35670212  0.34090646     0.99600
C644        C  0.35719518  0.47386149  0.33951832     0.99700
N645        N  0.56276087  0.62058068  0.31059416    -0.05600
N646        N  0.57351999  0.66672725  0.31705000    -0.61000
N647        N  0.58864374  0.52947551  0.32790274    -0.04900
N648        N  0.61196847  0.51548567  0.34545212    -0.57700
N649        N  0.62089747  0.56284354  0.31060907    -0.06200
N650        N  0.66707562  0.57345161  0.31691240    -0.60500
N651        N  0.52973871  0.58824807  0.32798337    -0.05200
N652        N  0.51625121  0.61152428  0.34586175    -0.57700
Mn653      Mn  0.59379790  0.59383367  0.27785530     1.20200
Mn654      Mn  0.50856261  0.50818032  0.32865445     1.10100
Cl655      Cl  0.50880731  0.50823841  0.27783121    -0.85700
C656        C  0.54416575  0.66063735  0.33928214     0.96600
C657        C  0.66109340  0.54362078  0.33890582     0.96400
N658        N  0.54718422  0.94300789  0.24378778    -0.05800
N659        N  0.55672175  0.90683242  0.23672820    -0.58000
N660        N  0.57217646  0.06023477  0.22752971    -0.05500
N661        N  0.59452531  0.09705882  0.20973092    -0.60100
N662        N  0.60518183  0.05981589  0.24449830    -0.05100
N663        N  0.65096439  0.09591843  0.23763436    -0.57900
N664        N  0.51474346  0.94367566  0.22646957    -0.04800
N665        N  0.50123720  0.90794838  0.20802578    -0.60400
C666        C  0.52721492  0.88465861  0.21420462     0.96300
C667        C  0.64381857  0.11925331  0.21562746     0.96100
N668        N  0.43737912  0.05852839  0.24494301    -0.06000
N669        N  0.42554765  0.09307936  0.23818309    -0.58500
N670        N  0.41229233  0.94235583  0.22697390    -0.04200
N671        N  0.38901824  0.90624889  0.20871590    -0.59800
N672        N  0.37988935  0.94259976  0.24452049    -0.06100
N673        N  0.33370585  0.90744365  0.23777570    -0.58800
N674        N  0.47055549  0.05961592  0.22751525    -0.03800
N675        N  0.48307272  0.09572950  0.20934495    -0.59900
Mn676      Mn  0.49249967  0.00148103  0.22663783     1.18400
C677        C  0.45450568  0.11621830  0.21576361     0.98400
C678        C  0.33982813  0.88480038  0.21520850     0.99100
N679        N  0.60542096  0.05910412  0.31063959    -0.06100
N680        N  0.65121094  0.09567967  0.31728226    -0.62400
N681        N  0.51382463  0.94200663  0.32729131    -0.04900
N682        N  0.49919053  0.90508041  0.34497401    -0.63100
N683        N  0.54664528  0.94198621  0.31001333    -0.05600
N684        N  0.55552000  0.90514498  0.31646417    -0.62700
N685        N  0.57261253  0.05837302  0.32822634    -0.04500
N686        N  0.59521137  0.09436951  0.34651366    -0.63300
Mn687      Mn  0.57819836  0.00094888  0.27724898     1.10700
C688        C  0.64435593  0.11803102  0.33987482     0.99600
C689        C  0.52513721  0.88194456  0.33854054     0.99700
N690        N  0.37970081  0.94208719  0.31041369    -0.05600
N691        N  0.33333346  0.90723991  0.31699277    -0.61000
N692        N  0.47080498  0.05876254  0.32822274    -0.04900
N693        N  0.48379250  0.09498277  0.34641111    -0.57700
N694        N  0.43766623  0.05807657  0.31088597    -0.06200
N695        N  0.42639839  0.09301017  0.31774452    -0.60500
N696        N  0.41182419  0.94124230  0.32792937    -0.05200
N697        N  0.38808562  0.90494530  0.34605812    -0.57700
Mn698      Mn  0.40703929  0.00032444  0.27770428     1.20200
Mn699      Mn  0.49235823  0.00011179  0.32845255     1.10100
Cl700      Cl  0.49255010  0.00069970  0.27752207    -0.85700
C701        C  0.33894740  0.88405559  0.33943079     0.96600
C702        C  0.45556181  0.11597768  0.34012921     0.96400
N703        N  0.94224493  0.54553778  0.30987753    -0.05800
N704        N  0.90611779  0.55523657  0.31682056    -0.58000
N705        N  0.05926653  0.57144284  0.32699551    -0.05500
N706        N  0.09511014  0.59409170  0.34532521    -0.60100
N707        N  0.05917151  0.60423997  0.30971827    -0.05100
N708        N  0.09483748  0.65017316  0.31675780    -0.57900
N709        N  0.94284421  0.51318124  0.32730666    -0.04800
N710        N  0.90702990  0.49988928  0.34569787    -0.60400
C711        C  0.88385441  0.52597689  0.33940567     0.96300
C712        C  0.11749708  0.64331496  0.33921007     0.96100
N713        N  0.05943111  0.43713298  0.30935681    -0.06000
N714        N  0.09382109  0.42509514  0.31611784    -0.58500
N715        N  0.94306796  0.41118829  0.32715016    -0.04200
N716        N  0.90742609  0.38748260  0.34558401    -0.59800
N717        N  0.94390191  0.37906008  0.30963333    -0.06100
N718        N  0.90962753  0.33265171  0.31651650    -0.58800
N719        N  0.06021389  0.47002355  0.32690633    -0.03800
N720        N  0.09603929  0.48207278  0.34524628    -0.59900
Mn721      Mn  0.00135125  0.49153280  0.32756140     1.18400
C722        C  0.11669445  0.45362058  0.33867546     0.98400
C723        C  0.88688013  0.33837355  0.33913127     0.99100
N724        N  0.05896284  0.60410182  0.24343303    -0.06100
N725        N  0.09558765  0.64986573  0.23688705    -0.62400
N726        N  0.94214968  0.51292837  0.22601097    -0.04900
N727        N  0.90591000  0.49931776  0.20785449    -0.63100
N728        N  0.94176168  0.54528723  0.24351292    -0.05600
N729        N  0.90525543  0.55459679  0.23689845    -0.62700
N730        N  0.05860867  0.57135051  0.22595851    -0.04500
N731        N  0.09503342  0.59385151  0.20793433    -0.63300
Mn732      Mn  0.00051844  0.57680588  0.27661354     1.10700
C733        C  0.11834137  0.64295510  0.21451202     0.99600
C734        C  0.88256533  0.52512175  0.21444851     0.99700
N735        N  0.94352180  0.37920096  0.24395038    -0.05600
N736        N  0.90851986  0.33282216  0.23761993    -0.61000
N737        N  0.05980616  0.47036341  0.22615463    -0.04900
N738        N  0.09646822  0.48364562  0.20820896    -0.57700
N739        N  0.05930130  0.43756436  0.24366607    -0.06200
N740        N  0.09471132  0.42678709  0.23721399    -0.60500
N741        N  0.94223208  0.41116821  0.22650347    -0.05200
N742        N  0.90539547  0.38739149  0.20873556    -0.57700
Mn743      Mn  0.00155149  0.40668459  0.27659762     1.20200
Mn744      Mn  0.00065661  0.49144430  0.22558424     1.10100
Cl745      Cl  0.00099632  0.49166942  0.27659027    -0.85700
C746        C  0.88479522  0.33837895  0.21544223     0.96600
C747        C  0.11783899  0.45587179  0.21486877     0.96400
N748        N  0.58076599  0.79839620  0.60470087    -0.36300
N749        N  0.55245798  0.84816623  0.64503265    -0.56900
N750        N  0.54646614  0.77764645  0.68751775    -0.36300
N751        N  0.57738442  0.72926995  0.64689014    -0.56900
C752        C  0.59239410  0.84151386  0.59167688     0.27200
C753        C  0.60960183  0.78169054  0.59346828     0.27200
C754        C  0.54449209  0.81299166  0.70350150     0.27200
C755        C  0.55346575  0.74608176  0.70414316     0.27200
C756        C  0.54299981  0.86478699  0.62114337     0.35900
C757        C  0.52698463  0.85628757  0.66517537     0.35900
C758        C  0.58514389  0.70888836  0.62395010     0.35900
C759        C  0.56481678  0.69519003  0.66740678     0.35900
C760        C  0.62933355  0.85272194  0.57215173    -0.21600
C761        C  0.64045446  0.81487617  0.57338717    -0.21600
C762        C  0.54964691  0.80306098  0.73086959    -0.21600
C763        C  0.55482696  0.76093394  0.73126373    -0.21600
C764        C  0.51111154  0.88313816  0.62571914    -0.22700
C765        C  0.50012754  0.87703093  0.65334537    -0.22700
C766        C  0.57770187  0.66180547  0.62980254    -0.22700
C767        C  0.56630685  0.65364647  0.65723934    -0.22700
C768        C  0.56772401  0.86873732  0.59603289    -0.18000
C769        C  0.60416461  0.73442473  0.59864745    -0.18000
C770        C  0.55531273  0.70257994  0.69540169    -0.18000
C771        C  0.53289945  0.85021465  0.69398923    -0.18000
H772        H  0.64596980  0.88436804  0.55821907     0.14900
H773        H  0.66715243  0.81139657  0.56043600     0.14900
H774        H  0.54776028  0.82247113  0.74896577     0.14900
H775        H  0.55856688  0.74311630  0.74959229     0.14900
H776        H  0.49716599  0.89912821  0.61068167     0.13200
H777        H  0.47380304  0.88587317  0.66272715     0.13200
H778        H  0.58209241  0.63658075  0.61609366     0.13200
H779        H  0.56176069  0.62105170  0.66801399     0.13200
H780        H  0.55042037  0.77832987  0.61784565     0.26400
H781        H  0.53802164  0.77204138  0.66667414     0.26400
N782        N  0.58279225  0.80104657  0.94854927    -0.36300
N783        N  0.57743492  0.72991157  0.90757742    -0.56900
N784        N  0.54567109  0.77684615  0.86628093    -0.36300
N785        N  0.55368185  0.84959549  0.90752527    -0.56900
C786        C  0.61041604  0.78368609  0.96069014     0.27200
C787        C  0.59454722  0.84463133  0.96106231     0.27200
C788        C  0.55215491  0.74460948  0.85007830     0.27200
C789        C  0.54318752  0.81130318  0.84982082     0.27200
C790        C  0.58495855  0.70994157  0.93077148     0.35900
C791        C  0.56342838  0.69479181  0.88752819     0.35900
C792        C  0.54435473  0.86656829  0.93126857     0.35900
C793        C  0.52646054  0.85556975  0.88760945     0.35900
C794        C  0.64060686  0.81692884  0.98092847    -0.21600
C795        C  0.63045630  0.85554542  0.98120085    -0.21600
C796        C  0.55264141  0.75811335  0.82273267    -0.21600
C797        C  0.54747647  0.80021424  0.82257578    -0.21600
C798        C  0.57592602  0.66211192  0.92553712    -0.22700
C799        C  0.56371099  0.65296490  0.89825113    -0.22700
C800        C  0.51099239  0.88318187  0.92682086    -0.22700
C801        C  0.49873778  0.87535733  0.89940565    -0.22700
C802        C  0.60476943  0.73613902  0.95582578    -0.18000
C803        C  0.56989161  0.87180499  0.95617040    -0.18000
C804        C  0.53157857  0.84851520  0.85892397    -0.18000
C805        C  0.55379479  0.70144339  0.85943827    -0.18000
H806        H  0.66624247  0.81307120  0.99458377     0.14900
H807        H  0.64673648  0.88731457  0.99505728     0.14900
H808        H  0.55555465  0.73931764  0.80461158     0.14900
H809        H  0.54487682  0.81879054  0.80428209     0.14900
H810        H  0.57955176  0.63685497  0.93959014     0.13200
H811        H  0.55764034  0.61936867  0.88801275     0.13200
H812        H  0.49667756  0.89884662  0.94183853     0.13200
H813        H  0.47097077  0.88227152  0.89014419     0.13200
H814        H  0.55276111  0.78107810  0.93521266     0.26400
H815        H  0.53767813  0.77207153  0.88720009     0.26400
N816        N  0.78503656  0.20144556  0.94903461    -0.36300
N817        N  0.70628422  0.15445231  0.90859164    -0.56900
N818        N  0.77177219  0.22354195  0.86678401    -0.36300
N819        N  0.85166894  0.26990614  0.90769113    -0.56900
C820        C  0.75265550  0.15792437  0.96132985     0.27200
C821        C  0.83020548  0.21660641  0.96039430     0.27200
C822        C  0.73448826  0.18848272  0.85062135     0.27200
C823        C  0.81119912  0.25406710  0.85045083     0.27200
C824        C  0.68036288  0.13899857  0.93251123     0.35900
C825        C  0.67304834  0.14790256  0.88859022     0.35900
C826        C  0.87937545  0.28996342  0.93081606     0.35900
C827        C  0.87270941  0.30475539  0.88753182     0.35900
C828        C  0.77754481  0.14462719  0.98034409    -0.21600
C829        C  0.82686294  0.18193488  0.97973705    -0.21600
C830        C  0.75065764  0.19739092  0.82342723    -0.21600
C831        C  0.79850932  0.23875563  0.82330899    -0.21600
C832        C  0.63049252  0.12310076  0.92812024    -0.22700
C833        C  0.62581052  0.12952505  0.90048196    -0.22700
C834        C  0.91839544  0.33760395  0.92544970    -0.22700
C835        C  0.91500927  0.34662527  0.89811700    -0.22700
C836        C  0.70067606  0.13294067  0.95721925    -0.18000
C837        C  0.87245102  0.26377070  0.95591340    -0.18000
C838        C  0.85622035  0.29754334  0.85945588    -0.18000
C839        C  0.68494668  0.15269359  0.85987057    -0.18000
H840        H  0.76165363  0.11218438  0.99371578     0.14900
H841        H  0.85655817  0.18411427  0.99262158     0.14900
H842        H  0.72975666  0.17792353  0.80524646     0.14900
H843        H  0.82087630  0.25583903  0.80511882     0.14900
H844        H  0.60066131  0.10818208  0.94323086     0.13200
H845        H  0.59116441  0.12225640  0.89100255     0.13200
H846        H  0.94745329  0.36276781  0.93945111     0.13200
H847        H  0.94241370  0.38006688  0.88768736     0.13200
H848        H  0.77548705  0.22288760  0.93649325     0.26400
H849        H  0.76857581  0.23017700  0.88747979     0.26400
N850        N  0.78531421  0.19969226  0.60594065    -0.36300
N851        N  0.70581908  0.15204664  0.64615043    -0.56900
N852        N  0.77034512  0.22281086  0.68777133    -0.36300
N853        N  0.85073290  0.26958076  0.64717292    -0.56900
C854        C  0.75373642  0.15607373  0.59342209     0.27200
C855        C  0.83071493  0.21616284  0.59447831     0.27200
C856        C  0.73273019  0.18862262  0.70405547     0.27200
C857        C  0.80908115  0.25444084  0.70421014     0.27200
C858        C  0.68017379  0.13326611  0.62235332     0.35900
C859        C  0.67166896  0.14303114  0.66610820     0.35900
C860        C  0.87898964  0.28962519  0.62424674     0.35900
C861        C  0.87162926  0.30432435  0.66736081     0.35900
C862        C  0.77931033  0.14423281  0.57410397    -0.21600
C863        C  0.82820314  0.18231561  0.57482490    -0.21600
C864        C  0.74789034  0.19935428  0.73137528    -0.21600
C865        C  0.79556262  0.24075749  0.73146001    -0.21600
C866        C  0.62955273  0.11250553  0.62678375    -0.22700
C867        C  0.62394220  0.11907859  0.65421058    -0.22700
C868        C  0.91814971  0.33709813  0.62977161    -0.22700
C869        C  0.91443121  0.34596769  0.65703755    -0.22700
C870        C  0.70175340  0.12931078  0.59755859    -0.18000
C871        C  0.87264039  0.26356081  0.59922602    -0.18000
C872        C  0.85436893  0.29748536  0.69521895    -0.18000
C873        C  0.68371681  0.15152262  0.69487448    -0.18000
H874        H  0.76413239  0.11209582  0.56051851     0.14900
H875        H  0.85819862  0.18547981  0.56183308     0.14900
H876        H  0.72643951  0.18092217  0.74961307     0.14900
H877        H  0.81725341  0.25903379  0.74967828     0.14900
H878        H  0.59971100  0.09414223  0.61183502     0.13200
H879        H  0.58796499  0.10797832  0.66321158     0.13200
H880        H  0.94762572  0.36219184  0.61595364     0.13200
H881        H  0.94196031  0.37917188  0.66759117     0.13200
H882        H  0.77500623  0.22024055  0.61869107     0.26400
H883        H  0.76775778  0.22802318  0.66684564     0.26400
N884        N  0.61639345  0.99998904  0.56936708    -0.36300
N885        N  0.57730532  0.92507686  0.52621699    -0.56900
N886        N  0.61489517  0.00216376  0.98359107    -0.36300
N887        N  0.65532367  0.07721742  0.52699372    -0.56900
C888        C  0.60886353  0.95875158  0.58329833     0.27200
C889        C  0.65105640  0.04005470  0.58367860     0.27200
C890        C  0.60734706  0.96164717  0.96888355     0.27200
C891        C  0.64811570  0.04305104  0.96923944     0.27200
C892        C  0.55769877  0.89470504  0.54837134     0.35900
C893        C  0.55785482  0.89591497  0.50364662     0.35900
C894        C  0.66703842  0.10657285  0.54963580     0.35900
C895        C  0.66605542  0.10775075  0.50493625     0.35900
C896        C  0.63858270  0.97285929  0.60674094    -0.21600
C897        C  0.66514942  0.02409639  0.60698711    -0.21600
C898        C  0.63510423  0.97705737  0.94472804    -0.21600
C899        C  0.66073232  0.02829336  0.94493753    -0.21600
C900        C  0.52469867  0.84622599  0.53983635    -0.22700
C901        C  0.52479512  0.84699004  0.51149441    -0.22700
C902        C  0.68437257  0.15586293  0.54194492    -0.22700
C903        C  0.68381774  0.15661985  0.51361862    -0.22700
C904        C  0.57567734  0.90859041  0.57564926    -0.18000
C905        C  0.66996850  0.09080009  0.57662375    -0.18000
C906        C  0.66791712  0.09345992  0.97742973    -0.18000
C907        C  0.57618714  0.91099808  0.97653761    -0.18000
H908        H  0.64157010  0.94880518  0.62194614     0.14900
H909        H  0.69236989  0.04693046  0.62243818     0.14900
H910        H  0.63766860  0.95392466  0.92877149     0.14900
H911        H  0.68673518  0.05184103  0.92919962     0.14900
H912        H  0.50486032  0.81328388  0.55265764     0.13200
H913        H  0.50501998  0.81474313  0.49817179     0.13200
H914        H  0.69846656  0.18824711  0.55530202     0.13200
H915        H  0.69740415  0.18969556  0.50085238     0.13200
H916        H  0.59623280  0.00082951  0.55235156     0.26400
H917        H  0.59613314  0.00195579  0.50147114     0.26400
N918        N  0.79809202  0.58297412  0.94899436    -0.36300
N919        N  0.84800968  0.55335278  0.90839934    -0.56900
N920        N  0.77716196  0.54553518  0.86670178    -0.36300
N921        N  0.72867834  0.57772717  0.90764921    -0.56900
C922        C  0.84101294  0.59414745  0.96199254     0.27200
C923        C  0.78050637  0.61046911  0.96106743     0.27200
C924        C  0.81234820  0.54365390  0.85045599     0.27200
C925        C  0.74526904  0.55228463  0.85031131     0.27200
C926        C  0.86423537  0.54421551  0.93246318     0.35900
C927        C  0.85686123  0.52791670  0.88852989     0.35900
C928        C  0.70801211  0.58560852  0.93047904     0.35900
C929        C  0.69423130  0.56360044  0.88724611     0.35900
C930        C  0.85134225  0.62961293  0.98235813    -0.21600
C931        C  0.81301699  0.64008701  0.98171139    -0.21600
C932        C  0.80191353  0.54856339  0.82316692    -0.21600
C933        C  0.75966311  0.55352797  0.82307400    -0.21600
C934        C  0.88327426  0.51277112  0.92822923    -0.22700
C935        C  0.87807390  0.50177193  0.90064211    -0.22700
C936        C  0.66050198  0.57682882  0.92466216    -0.22700
C937        C  0.65218282  0.56426375  0.89739223    -0.22700
C938        C  0.86806076  0.56932436  0.95739595    -0.18000
C939        C  0.73323789  0.60504233  0.95580516    -0.18000
C940        C  0.70169074  0.55369836  0.85931620    -0.18000
C941        C  0.85001428  0.53255192  0.85972696    -0.18000
H942        H  0.88248077  0.64534404  0.99664708     0.14900
H943        H  0.80878807  0.66542957  0.99542791     0.14900
H944        H  0.82117993  0.54679143  0.80496682     0.14900
H945        H  0.74144939  0.55703862  0.80485240     0.14900
H946        H  0.89938127  0.49930081  0.94347013     0.13200
H947        H  0.88769734  0.47581455  0.89154927     0.13200
H948        H  0.63494960  0.58081504  0.93831292     0.13200
H949        H  0.61899940  0.55840519  0.88676043     0.13200
H950        H  0.77867773  0.55328006  0.93546076     0.26400
H951        H  0.77157980  0.53716340  0.88750212     0.26400
N952        N  0.79708107  0.58198080  0.60548202    -0.36300
N953        N  0.72875385  0.57890727  0.64704616    -0.56900
N954        N  0.77678095  0.54662319  0.68786740    -0.36300
N955        N  0.84606577  0.55172648  0.64591620    -0.56900
C956        C  0.78045884  0.61059585  0.59383208     0.27200
C957        C  0.84062038  0.59381732  0.59296220     0.27200
C958        C  0.74638188  0.55539315  0.70436914     0.27200
C959        C  0.81214694  0.54467505  0.70388330     0.27200
C960        C  0.70804666  0.58670822  0.62422777     0.35900
C961        C  0.69505352  0.56650011  0.66771894     0.35900
C962        C  0.86188250  0.54209091  0.62188335     0.35900
C963        C  0.85331126  0.52511723  0.66569641     0.35900
C964        C  0.81414450  0.64160864  0.57401409    -0.21600
C965        C  0.85235144  0.63091918  0.57344207    -0.21600
C966        C  0.76207479  0.55821202  0.73144349    -0.21600
C967        C  0.80354632  0.55195092  0.73113142    -0.21600
C968        C  0.66119135  0.57960179  0.63034789    -0.22700
C969        C  0.65348369  0.56828800  0.65781960    -0.22700
C970        C  0.87878029  0.50883821  0.62597983    -0.22700
C971        C  0.87259213  0.49725545  0.65354407    -0.22700
C972        C  0.73318670  0.60524113  0.59876876    -0.18000
C973        C  0.86700573  0.56824952  0.59723379    -0.18000
C974        C  0.84810415  0.53132983  0.69447282    -0.18000
C975        C  0.70280253  0.55691523  0.69562917    -0.18000
H976        H  0.81084085  0.66817584  0.56086128     0.14900
H977        H  0.88437312  0.64761873  0.55976817     0.14900
H978        H  0.74522732  0.56359821  0.74970817     0.14900
H979        H  0.82337164  0.55081417  0.74922489     0.14900
H980        H  0.63584908  0.58412294  0.61679980     0.13200
H981        H  0.62120167  0.56403426  0.66883346     0.13200
H982        H  0.89407027  0.49459075  0.61069570     0.13200
H983        H  0.88058979  0.47019062  0.66275737     0.13200
H984        H  0.77669687  0.55140596  0.61844205     0.26400
H985        H  0.76989925  0.53671878  0.66720663     0.26400
N986        N  0.19782655  0.78442767  0.60596945    -0.36300
N987        N  0.15091234  0.70559017  0.64600499    -0.56900
N988        N  0.22377840  0.76965676  0.68756897    -0.36300
N989        N  0.26951144  0.84955229  0.64716589    -0.56900
C990        C  0.15419268  0.75292551  0.59344638     0.27200
C991        C  0.21439124  0.82988570  0.59467827     0.27200
C992        C  0.18910410  0.73226552  0.70376433     0.27200
C993        C  0.25555873  0.80837332  0.70400733     0.27200
C994        C  0.13339611  0.67989828  0.62211287     0.35900
C995        C  0.14507787  0.67191184  0.66558209     0.35900
C996        C  0.28924521  0.87672384  0.62386988     0.35900
C997        C  0.30559633  0.86952202  0.66678147     0.35900
C998        C  0.14235254  0.77861526  0.57420642    -0.21600
C999        C  0.18054857  0.82756045  0.57503780    -0.21600
C1000       C  0.19960876  0.74740770  0.73108290    -0.21600
C1001       C  0.24146514  0.79492154  0.73123333    -0.21600
C1002       C  0.11669023  0.62979154  0.62610977    -0.22700
C1003       C  0.12488009  0.62466719  0.65340817    -0.22700
C1004       C  0.33792417  0.91415887  0.62852506    -0.22700
C1005       C  0.34802872  0.91044805  0.65560408    -0.22700
C1006       C  0.12779348  0.70094560  0.59757005    -0.18000
C1007       C  0.26221326  0.87126875  0.59929721    -0.18000
C1008       C  0.29896335  0.85343062  0.69491767    -0.18000
C1009       C  0.15210569  0.68338178  0.69436185    -0.18000
H1010       H  0.11030363  0.76347712  0.56055334     0.14900
H1011       H  0.18392633  0.85761828  0.56202445     0.14900
H1012       H  0.18077827  0.72597278  0.74925673     0.14900
H1013       H  0.25975123  0.81649753  0.74947732     0.14900
H1014       H  0.10056029  0.60016175  0.61090212     0.13200
H1015       H  0.11770621  0.58969956  0.66238698     0.13200
H1016       H  0.36316030  0.94247809  0.61420178     0.13200
H1017       H  0.38277240  0.93673440  0.66534637     0.13200
H1018       H  0.21850797  0.77405112  0.61857303     0.26400
H1019       H  0.22897946  0.76672494  0.66665061     0.26400
N1020       N  0.19957090  0.78352963  0.94932444    -0.36300
N1021       N  0.27015959  0.84885284  0.90804156    -0.56900
N1022       N  0.22193291  0.76979190  0.86689928    -0.36300
N1023       N  0.14993817  0.70526433  0.90847892    -0.56900
C1024       C  0.21699944  0.82868882  0.96124192     0.27200
C1025       C  0.15599613  0.75205905  0.96193748     0.27200
C1026       C  0.25449233  0.80816535  0.85053550     0.27200
C1027       C  0.18760011  0.73238775  0.85055931     0.27200
C1028       C  0.29034713  0.87687115  0.93106689     0.35900
C1029       C  0.30456287  0.87023296  0.88765610     0.35900
C1030       C  0.13311663  0.67937292  0.93237924     0.35900
C1031       C  0.14269912  0.67160048  0.88854348     0.35900
C1032       C  0.18374656  0.82612380  0.98134881    -0.21600
C1033       C  0.14511528  0.77746860  0.98184229    -0.21600
C1034       C  0.24117244  0.79451790  0.82324520    -0.21600
C1035       C  0.19904536  0.74725967  0.82325270    -0.21600
C1036       C  0.33761492  0.91631502  0.92535834    -0.22700
C1037       C  0.34605800  0.91311824  0.89795571    -0.22700
C1038       C  0.11533182  0.62916527  0.92800566    -0.22700
C1039       C  0.12203904  0.62412009  0.90048816    -0.22700
C1040       C  0.26456724  0.87041730  0.95632447    -0.18000
C1041       C  0.12866284  0.70021002  0.95733306    -0.18000
C1042       C  0.15022270  0.68353284  0.85977078    -0.18000
C1043       C  0.29779219  0.85328383  0.85966980    -0.18000
H1044       H  0.18758207  0.85588699  0.49477395     0.14900
H1045       H  0.11331526  0.76235773  0.49567320     0.14900
H1046       H  0.26016736  0.81581028  0.80504839     0.14900
H1047       H  0.18073619  0.72573650  0.80501019     0.14900
H1048       H  0.36283350  0.94577030  0.93914367     0.13200
H1049       H  0.37889163  0.94101087  0.88728253     0.13200
H1050       H  0.09942101  0.59936809  0.94312317     0.13200
H1051       H  0.11379710  0.58898219  0.89131715     0.13200
H1052       H  0.21941622  0.77315398  0.93608052     0.26400
H1053       H  0.22643194  0.76709449  0.88788721     0.26400
N1054       N  0.41674119  0.21805389  0.60635722    -0.36300
N1055       N  0.42028235  0.15165131  0.64758065    -0.56900
N1056       N  0.45423074  0.23120049  0.68846269    -0.36300
N1057       N  0.44828076  0.29663113  0.64693843    -0.56900
C1058       C  0.38750961  0.17290702  0.59471407     0.27200
C1059       C  0.40594427  0.25051289  0.59378725     0.27200
C1060       C  0.44668579  0.19222483  0.70476809     0.27200
C1061       C  0.45756785  0.26866705  0.70478764     0.27200
C1062       C  0.41313677  0.12455895  0.62426807     0.35900
C1063       C  0.43575689  0.13136388  0.66734801     0.35900
C1064       C  0.45822476  0.32272937  0.62308486     0.35900
C1065       C  0.47604078  0.32967942  0.66679422     0.35900
C1066       C  0.35713612  0.17645539  0.57478524    -0.21600
C1067       C  0.36893167  0.22575130  0.57414858    -0.21600
C1068       C  0.44623338  0.20549540  0.73204873    -0.21600
C1069       C  0.45266279  0.25327327  0.73206454    -0.21600
C1070       C  0.42393420  0.08684796  0.62908128    -0.22700
C1071       C  0.43719604  0.09034266  0.65625955    -0.22700
C1072       C  0.49267941  0.37248138  0.62741858    -0.22700
C1073       C  0.50480607  0.37690356  0.65490439    -0.22700
C1074       C  0.39241824  0.13056314  0.59948185    -0.18000
C1075       C  0.43226723  0.30249629  0.59824008    -0.18000
C1076       C  0.47042436  0.31778804  0.69551267    -0.18000
C1077       C  0.44481277  0.14726920  0.69552685    -0.18000
H1078       H  0.33045861  0.14695137  0.56149583     0.14900
H1079       H  0.35299224  0.24170430  0.56037345     0.14900
H1080       H  0.44275584  0.18370807  0.75022722     0.14900
H1081       H  0.45580908  0.27470898  0.75032680     0.14900
H1082       H  0.42101240  0.05856888  0.61477697     0.13200
H1083       H  0.44522814  0.06387159  0.66616769     0.13200
H1084       H  0.50768311  0.40230560  0.61230642     0.13200
H1085       H  0.53294940  0.41128523  0.66427998     0.13200
H1086       H  0.44717605  0.22763024  0.61934746     0.26400
H1087       H  0.46250382  0.23415960  0.66749578     0.26400
N1088       N  0.41679862  0.21618587  0.95008914    -0.36300
N1089       N  0.42239500  0.15126006  0.90869926    -0.56900
N1090       N  0.45447641  0.23066171  0.86801499    -0.36300
N1091       N  0.44651088  0.29457989  0.90974511    -0.56900
C1092       C  0.38803633  0.17081043  0.96147359     0.27200
C1093       C  0.40505250  0.24774870  0.96283364     0.27200
C1094       C  0.44668636  0.19161671  0.85162728     0.27200
C1095       C  0.45555504  0.26736508  0.85186305     0.27200
C1096       C  0.41504173  0.12372713  0.93184369     0.35900
C1097       C  0.43746974  0.13097753  0.88873026     0.35900
C1098       C  0.45591981  0.32042218  0.93366852     0.35900
C1099       C  0.47331642  0.32817032  0.88988556     0.35900
C1100       C  0.35697830  0.17328278  0.98138628    -0.21600
C1101       C  0.36800817  0.22226288  0.98235782    -0.21600
C1102       C  0.44373690  0.20408085  0.82448046    -0.21600
C1103       C  0.44888041  0.25135421  0.82463054    -0.21600
C1104       C  0.42536594  0.08577863  0.92673947    -0.22700
C1105       C  0.43843535  0.08951719  0.89953073    -0.22700
C1106       C  0.48906951  0.37050864  0.92940181    -0.22700
C1107       C  0.50092241  0.37548992  0.90188109    -0.22700
C1108       C  0.39412127  0.12929867  0.95664671    -0.18000
C1109       C  0.43039779  0.29959918  0.95852444    -0.18000
C1110       C  0.46776707  0.31640975  0.86112509    -0.18000
C1111       C  0.44605088  0.14702121  0.86058665    -0.18000
H1112       H  0.33042374  0.14329743  0.49448639     0.14900
H1113       H  0.35150058  0.23752227  0.49622323     0.14900
H1114       H  0.43906482  0.18193622  0.80626904     0.14900
H1115       H  0.44966320  0.27194555  0.80644003     0.14900
H1116       H  0.42195355  0.05700842  0.94081998     0.13200
H1117       H  0.44569905  0.06271417  0.88938398     0.13200
H1118       H  0.50334033  0.40021778  0.94458133     0.13200
H1119       H  0.52817835  0.41039599  0.89261122     0.13200
H1120       H  0.44740731  0.22649373  0.93722380     0.26400
H1121       H  0.46421994  0.23423398  0.88862545     0.26400
N1122       N  0.38920928  0.38930101  0.57077236    -0.36300
N1123       N  0.42402086  0.34791634  0.52824821    -0.56900
N1124       N  0.38372413  0.38326574  0.98531058    -0.36300
N1125       N  0.34920067  0.42491089  0.52746254    -0.56900
C1126       C  0.39525128  0.35510100  0.58521880     0.27200
C1127       C  0.35535094  0.39655986  0.58471815     0.27200
C1128       C  0.38996486  0.34867833  0.97153920     0.27200
C1129       C  0.34891378  0.38889387  0.97130934     0.27200
C1130       C  0.44393228  0.33812486  0.55058766     0.35900
C1131       C  0.44236879  0.33626613  0.50590236     0.35900
C1132       C  0.34087240  0.44638596  0.54955733     0.35900
C1133       C  0.33731808  0.44263302  0.50494833     0.35900
C1134       C  0.36572160  0.34132674  0.60871378    -0.21600
C1135       C  0.34049528  0.36734740  0.60837085    -0.21600
C1136       C  0.35923844  0.33260706  0.94847696    -0.21600
C1137       C  0.33329267  0.35795269  0.94835123    -0.21600
C1138       C  0.47602355  0.32126503  0.54240448    -0.22700
C1139       C  0.47510065  0.32016457  0.51406180    -0.22700
C1140       C  0.32499294  0.47911568  0.54100687    -0.22700
C1141       C  0.32266210  0.47666848  0.51269062    -0.22700
C1142       C  0.42642696  0.33557633  0.57780040    -0.18000
C1143       C  0.33740096  0.42889231  0.57684583    -0.18000
C1144       C  0.33169770  0.42212687  0.97826882    -0.18000
C1145       C  0.42325850  0.33173857  0.97889753    -0.18000
H1146       H  0.36170932  0.31436833  0.62424221     0.14900
H1147       H  0.31342426  0.36414288  0.62361431     0.14900
H1148       H  0.35538244  0.30501488  0.93340647     0.14900
H1149       H  0.30572319  0.35367482  0.93315333     0.14900
H1150       H  0.49570656  0.30837037  0.55551241     0.13200
H1151       H  0.49394731  0.30624011  0.50101769     0.13200
H1152       H  0.31311778  0.49992674  0.55390093     0.13200
H1153       H  0.30892318  0.49543137  0.49944596     0.13200
H1154       H  0.40937967  0.40895416  0.55342177     0.26400
H1155       H  0.40512594  0.40482127  0.50187580     0.26400
N1156       N  0.21682841  0.41772293  0.94944464    -0.36300
N1157       N  0.15137071  0.42158210  0.90772392    -0.56900
N1158       N  0.23075704  0.45193169  0.86683399    -0.36300
N1159       N  0.29520947  0.44603941  0.90884925    -0.56900
C1160       C  0.17157115  0.39010452  0.96125234     0.27200
C1161       C  0.24802153  0.40541027  0.96222288     0.27200
C1162       C  0.19233159  0.44529211  0.85026186     0.27200
C1163       C  0.26840704  0.45508872  0.85069590     0.27200
C1164       C  0.12278097  0.41355715  0.93049530     0.35900
C1165       C  0.12935013  0.43277998  0.88690428     0.35900
C1166       C  0.32105025  0.45385531  0.93265758     0.35900
C1167       C  0.32924514  0.47097795  0.88882715     0.35900
C1168       C  0.17380032  0.35935802  0.98142810    -0.21600
C1169       C  0.22237271  0.36920721  0.98210018    -0.21600
C1170       C  0.20616136  0.44520466  0.82306734    -0.21600
C1171       C  0.25363821  0.45097093  0.82332932    -0.21600
C1172       C  0.08219968  0.41925084  0.92417806    -0.22700
C1173       C  0.08541614  0.42986519  0.89662859    -0.22700
C1174       C  0.37158062  0.48396373  0.92817712    -0.22700
C1175       C  0.37698294  0.49558172  0.90070695    -0.22700
C1176       C  0.12984302  0.39573320  0.95606907    -0.18000
C1177       C  0.29979289  0.42926420  0.95765002    -0.18000
C1178       C  0.31721406  0.46670780  0.86005498    -0.18000
C1179       C  0.14688719  0.44297659  0.85906630    -0.18000
H1180       H  0.14380220  0.33336888  0.99470944     0.14900
H1181       H  0.23727089  0.35234847  0.99595344     0.14900
H1182       H  0.18479466  0.44209210  0.80476123     0.14900
H1183       H  0.27526412  0.45393616  0.80517854     0.14900
H1184       H  0.05202242  0.41414712  0.93764374     0.13200
H1185       H  0.05692961  0.43305939  0.88540717     0.13200
H1186       H  0.40145374  0.49627197  0.94317529     0.13200
H1187       H  0.41280564  0.52088148  0.89168205     0.13200
H1188       H  0.22735719  0.44790965  0.93610454     0.26400
H1189       H  0.23323913  0.45956782  0.88781506     0.26400
N1190       N  0.21983175  0.42009766  0.60491609    -0.36300
N1191       N  0.29807862  0.45036463  0.64586020    -0.56900
N1192       N  0.23290912  0.45538030  0.68757294    -0.36300
N1193       N  0.15345346  0.42235652  0.64651609    -0.56900
C1194       C  0.25268465  0.41049491  0.59182472     0.27200
C1195       C  0.17489270  0.39130262  0.59291111     0.27200
C1196       C  0.26921117  0.45594466  0.70387135     0.27200
C1197       C  0.19343617  0.44689164  0.70376098     0.27200
C1198       C  0.32461774  0.46002213  0.62216827     0.35900
C1199       C  0.33139594  0.47474655  0.66629552     0.35900
C1200       C  0.12505760  0.41361952  0.62357281     0.35900
C1201       C  0.13230928  0.43621116  0.66661954     0.35900
C1202       C  0.22845901  0.37501108  0.57135775    -0.21600
C1203       C  0.17911318  0.36274020  0.57210304    -0.21600
C1204       C  0.25243530  0.44817807  0.73096702    -0.21600
C1205       C  0.20515715  0.44297253  0.73090662    -0.21600
C1206       C  0.37491140  0.49088084  0.62716818    -0.22700
C1207       C  0.37938653  0.50097887  0.65483999    -0.22700
C1208       C  0.08563855  0.42156738  0.62903951    -0.22700
C1209       C  0.08942225  0.43470035  0.65619206    -0.22700
C1210       C  0.30448141  0.43572277  0.59690043    -0.18000
C1211       C  0.13174360  0.39444794  0.59840152    -0.18000
C1212       C  0.14884898  0.44598530  0.69462954    -0.18000
C1213       C  0.31849810  0.46839447  0.69497587    -0.18000
H1214       H  0.24467311  0.36004153  0.55710572     0.14900
H1215       H  0.14993952  0.33670340  0.55842788     0.14900
H1216       H  0.27245888  0.44808162  0.74921695     0.14900
H1217       H  0.18239180  0.43730120  0.74897094     0.14900
H1218       H  0.40525478  0.50447959  0.61239759     0.13200
H1219       H  0.41471218  0.52637099  0.66435435     0.13200
H1220       H  0.05606702  0.41687600  0.61520464     0.13200
H1221       H  0.06169709  0.44022388  0.66662078     0.13200
H1222       H  0.22897159  0.44925241  0.61874930     0.26400
H1223       H  0.23683456  0.46587765  0.66697786     0.26400
N1224       N  0.00086523  0.33282651  0.98598692    -0.36300
N1225       N  0.07693172  0.37283390  0.52737752    -0.56900
N1226       N  0.00174667  0.33205301  0.56918269    -0.36300
N1227       N  0.92535183  0.29415563  0.52765470    -0.56900
C1228       C  0.04175454  0.33999076  0.97210184     0.27200
C1229       C  0.96065740  0.29771511  0.97220362     0.27200
C1230       C  0.04271945  0.33879287  0.58291915     0.27200
C1231       C  0.96132785  0.29779242  0.58323162     0.27200
C1232       C  0.10376378  0.39795184  0.50504696     0.35900
C1233       C  0.10452785  0.39683200  0.54971227     0.35900
C1234       C  0.89749870  0.29034160  0.50534839     0.35900
C1235       C  0.89799209  0.29086905  0.55006824     0.35900
C1236       C  0.02757970  0.30814920  0.94954826    -0.21600
C1237       C  0.97599753  0.28135123  0.94957918    -0.21600
C1238       C  0.02827062  0.30765381  0.60579395    -0.21600
C1239       C  0.97658943  0.28168940  0.60601922    -0.21600
C1240       C  0.14865568  0.43905843  0.51317789    -0.22700
C1241       C  0.14911884  0.43838730  0.54160990    -0.22700
C1242       C  0.85211469  0.28529260  0.51356465    -0.22700
C1243       C  0.85244476  0.28568926  0.54200693    -0.22700
C1244       C  0.09057960  0.37878392  0.97797316    -0.18000
C1245       C  0.91116323  0.28532495  0.97818164    -0.18000
C1246       C  0.91177099  0.28565444  0.57717978    -0.18000
C1247       C  0.09197462  0.37679359  0.57664582    -0.18000
H1248       H  0.05178096  0.30583397  0.93417514     0.14900
H1249       H  0.95248211  0.25426133  0.93424619     0.14900
H1250       H  0.05238708  0.30524650  0.62118903     0.14900
H1251       H  0.95300005  0.25525455  0.62159226     0.14900
H1252       H  0.17872682  0.46534086  0.50003878     0.13200
H1253       H  0.17957141  0.46417915  0.55471216     0.13200
H1254       H  0.82143681  0.28018045  0.50051152     0.13200
H1255       H  0.82199811  0.28082870  0.55518284     0.13200
H1256       H  0.00028257  0.35584425  0.50157789     0.26400
H1257       H  0.00128622  0.35480535  0.55341673     0.26400
N1258       N  0.33058278  0.00077474  0.56976895    -0.36300
N1259       N  0.29425490  0.92440929  0.52780695    -0.56900
N1260       N  0.33273421  0.99990430  0.98609597    -0.36300
N1261       N  0.36995359  0.07625400  0.52805675    -0.56900
C1262       C  0.29706026  0.96008505  0.58392504     0.27200
C1263       C  0.33793901  0.04144812  0.58408142     0.27200
C1264       C  0.29914367  0.95933546  0.97187604     0.27200
C1265       C  0.33985840  0.04054448  0.97194217     0.27200
C1266       C  0.28993309  0.89685117  0.55032320     0.35900
C1267       C  0.29132174  0.89660876  0.50561727     0.35900
C1268       C  0.39362642  0.10420644  0.55041264     0.35900
C1269       C  0.39487267  0.10342230  0.50574174     0.35900
C1270       C  0.28230230  0.97492833  0.60743098    -0.21600
C1271       C  0.30824436  0.02653718  0.60753132    -0.21600
C1272       C  0.28393289  0.97425399  0.94858763    -0.21600
C1273       C  0.30990178  0.02582975  0.94858849    -0.21600
C1274       C  0.28479364  0.85124385  0.54245653    -0.22700
C1275       C  0.28576389  0.85112797  0.51405456    -0.22700
C1276       C  0.43434815  0.14938093  0.54230665    -0.22700
C1277       C  0.43516501  0.14886809  0.51392256    -0.22700
C1278       C  0.28437483  0.91054306  0.57739484    -0.18000
C1279       C  0.37477883  0.09101931  0.57757091    -0.18000
C1280       C  0.37681126  0.08989817  0.97847328    -0.23400
C1281       C  0.28673980  0.90989559  0.97827104    -0.18000
H1282       H  0.25675079  0.95109782  0.62325909     0.14900
H1283       H  0.30657484  0.05029620  0.62342309     0.14900
H1284       H  0.25811521  0.95050971  0.93282994     0.14900
H1285       H  0.30804209  0.04970718  0.93283906     0.14900
H1286       H  0.27925113  0.82066574  0.55572629     0.13200
H1287       H  0.28099429  0.82042533  0.50113442     0.13200
H1288       H  0.45980711  0.18003809  0.55539919     0.13200
H1289       H  0.46124631  0.17914022  0.50082157     0.13200
H1290       H  0.35246353  0.00068744  0.55342228     0.26400
H1291       H  0.35479388  0.99994117  0.50239918     0.26400
N1292       N  0.99827422  0.61569941  0.98457634    -0.36300
N1293       N  0.07382522  0.65524795  0.52744174    -0.56900
N1294       N  0.99768710  0.61537526  0.57038166    -0.36300
N1295       N  0.92196692  0.57739171  0.52742755    -0.56900
C1296       C  0.03884729  0.64893975  0.97005124     0.27200
C1297       C  0.95757232  0.60817569  0.97015377     0.27200
C1298       C  0.03809634  0.64942271  0.58471383     0.27200
C1299       C  0.95678563  0.60773166  0.58467928     0.27200
C1300       C  0.10377588  0.66534985  0.50515869     0.35900
C1301       C  0.10350091  0.66576968  0.54986724     0.35900
C1302       C  0.89229507  0.55831115  0.50501998     0.35900
C1303       C  0.89195727  0.55794701  0.54968932     0.35900
C1304       C  0.02371996  0.66177846  0.94597081    -0.21600
C1305       C  0.97251124  0.63616031  0.94605051    -0.21600
C1306       C  0.02269635  0.66270843  0.60854048    -0.21600
C1307       C  0.97143608  0.63644166  0.60851899    -0.21600
C1308       C  0.15249988  0.68145890  0.51347719    -0.22700
C1309       C  0.15233360  0.68176580  0.54181050    -0.22700
C1310       C  0.84334950  0.52577739  0.51307623    -0.22700
C1311       C  0.84313229  0.52556499  0.54139840    -0.22700
C1312       C  0.08928626  0.66804939  0.97781649    -0.18000
C1313       C  0.90717577  0.57640594  0.97787653    -0.18000
C1314       C  0.90646729  0.57558791  0.57692194    -0.18000
C1315       C  0.08863331  0.66873715  0.57706150    -0.18000
H1316       H  0.04701470  0.68772072  0.93014598     0.14900
H1317       H  0.94909228  0.63871457  0.93026553     0.14900
H1318       H  0.04588535  0.68933034  0.62414254     0.14900
H1319       H  0.94774825  0.63910395  0.62409714     0.14900
H1320       H  0.18515998  0.69408270  0.50047210     0.13200
H1321       H  0.18483501  0.69462793  0.55496959     0.13200
H1322       H  0.81077929  0.50643641  0.49993182     0.13200
H1323       H  0.81037008  0.50603488  0.55438988     0.13200
H1324       H  0.99835096  0.59652958  0.50221707     0.26400
H1325       H  0.99806839  0.59589127  0.55294068     0.26400
N1326       N  0.66505602  0.66624760  0.56887551    -0.36300
N1327       N  0.62648829  0.70378543  0.52718581    -0.56900
N1328       N  0.66462315  0.66634811  0.98534317    -0.36300
N1329       N  0.70140308  0.62707986  0.52718074    -0.56900
C1330       C  0.65864454  0.70041725  0.58280991     0.27200
C1331       C  0.69921226  0.65979721  0.58282726     0.27200
C1332       C  0.65852769  0.70081236  0.97141221     0.27200
C1333       C  0.69827848  0.65919695  0.97127952     0.27200
C1334       C  0.60214964  0.70679225  0.54956075     0.35900
C1335       C  0.60274042  0.70801363  0.50487528     0.35900
C1336       C  0.70525652  0.60317356  0.54956294     0.35900
C1337       C  0.70458128  0.60280423  0.50480235     0.35900
C1338       C  0.68983735  0.71681516  0.60566246    -0.21600
C1339       C  0.71563968  0.69102508  0.60566377    -0.21600
C1340       C  0.68920025  0.71639757  0.94834726    -0.21600
C1341       C  0.71441928  0.68999685  0.94826204    -0.21600
C1342       C  0.56192944  0.71217080  0.54145807    -0.22700
C1343       C  0.56237160  0.71305207  0.51304613    -0.22700
C1344       C  0.71016235  0.56272595  0.54141081    -0.22700
C1345       C  0.70966025  0.56244389  0.51297870    -0.22700
C1346       C  0.62100761  0.71206259  0.57669819    -0.18000
C1347       C  0.71088822  0.62216889  0.57672731    -0.18000
C1348       C  0.71027625  0.62176169  0.97762253    -0.18000
C1349       C  0.62174901  0.71370711  0.97776815    -0.18000
H1350       H  0.69243733  0.74325154  0.62116826     0.14900
H1351       H  0.74209058  0.69364558  0.62116670     0.14900
H1352       H  0.69196621  0.74285728  0.93281121     0.14900
H1353       H  0.74052989  0.69217363  0.93266323     0.14900
H1354       H  0.53630575  0.71703266  0.55460065     0.13200
H1355       H  0.53707582  0.71857017  0.49998324     0.13200
H1356       H  0.71543354  0.53731035  0.55450449     0.13200
H1357       H  0.71458957  0.53682460  0.49987088     0.13200
H1358       H  0.64208838  0.64336069  0.55306897     0.26400
H1359       H  0.64200507  0.64392840  0.50137858     0.26400
N1360       N  0.39650003  0.45360490  0.74464330    -0.05800
N1361       N  0.35073044  0.44401265  0.73768494    -0.58000
N1362       N  0.48806534  0.42918478  0.72738134    -0.05500
N1363       N  0.50217189  0.40707441  0.70920712    -0.60100
N1364       N  0.45591207  0.39611577  0.74482339    -0.05100
N1365       N  0.44720142  0.35057482  0.73815952    -0.57900
N1366       N  0.42956056  0.48701709  0.72769673    -0.04800
N1367       N  0.40734445  0.50141907  0.70980953    -0.60400
C1368       C  0.35806710  0.47456030  0.71565087     0.96300
C1369       C  0.47686375  0.35794549  0.71573418     0.96100
N1370       N  0.62152922  0.56368775  0.74506409    -0.06000
N1371       N  0.66788827  0.57523965  0.73849310    -0.58500
N1372       N  0.53040604  0.58922064  0.72751914    -0.04200
N1373       N  0.51745902  0.61265184  0.70941424    -0.59800
N1374       N  0.56336084  0.62151314  0.74495883    -0.06100
N1375       N  0.57456772  0.66779503  0.73829305    -0.58800
N1376       N  0.58944819  0.53063336  0.72759955    -0.03800
N1377       N  0.61307636  0.51788021  0.70955909    -0.59900
Mn1378     Mn  0.50927277  0.50893764  0.72701532     1.18400
C1379       C  0.66216640  0.54629589  0.71611267     0.98400
C1380       C  0.54550409  0.66185448  0.71589009     0.99100
N1381       N  0.45485880  0.39534780  0.81112417    -0.06100
N1382       N  0.44513525  0.34958806  0.81816801    -0.62400
N1383       N  0.42888826  0.48657618  0.82780003    -0.04900
N1384       N  0.40638862  0.50085956  0.84557223    -0.63100
N1385       N  0.39607947  0.45327645  0.81071935    -0.05600
N1386       N  0.35020812  0.44350284  0.81746864    -0.62700
N1387       N  0.48687176  0.42829173  0.82865618    -0.04500
N1388       N  0.49985402  0.40589805  0.84728024    -0.63300
Mn1389     Mn  0.42375876  0.42238812  0.77778891     1.10700
C1390       C  0.47407930  0.35670131  0.84090615     0.99600
C1391       C  0.35719420  0.47386049  0.83951785     0.99700
N1392       N  0.56275977  0.62057995  0.81059441    -0.05600
N1393       N  0.57351867  0.66672643  0.81705029    -0.61000
N1394       N  0.58864258  0.52947459  0.82790285    -0.04900
N1395       N  0.61196705  0.51548431  0.84545216    -0.57700
N1396       N  0.62089649  0.56284282  0.81060934    -0.06200
N1397       N  0.66707453  0.57345055  0.81691270    -0.60500
N1398       N  0.52973754  0.58824719  0.82798354    -0.05200
N1399       N  0.51624986  0.61152326  0.84586193    -0.57700
Mn1400     Mn  0.59379743  0.59383352  0.77785556     1.20200
Mn1401     Mn  0.50856152  0.50817945  0.82865435     1.10100
Cl1402     Cl  0.50880701  0.50823824  0.77783105    -0.85700
C1403       C  0.54416430  0.66063637  0.83928238     0.96600
C1404       C  0.66109204  0.54361937  0.83890599     0.96400
N1405       N  0.54718434  0.94300828  0.74378756    -0.05800
N1406       N  0.55672188  0.90683282  0.73672800    -0.58000
N1407       N  0.57217624  0.06023519  0.72752966    -0.05500
N1408       N  0.59452504  0.09705938  0.70973094    -0.60100
N1409       N  0.60518168  0.05981621  0.74449816    -0.05100
N1410       N  0.65096423  0.09591867  0.73763413    -0.57900
N1411       N  0.51474340  0.94367587  0.72646941    -0.04800
N1412       N  0.50123692  0.90794836  0.70802575    -0.60400
C1413       C  0.52721486  0.88465879  0.71420452     0.96300
C1414       C  0.64381836  0.11925363  0.71562730     0.96100
N1415       N  0.43737864  0.05852809  0.74494305    -0.06000
N1416       N  0.42554743  0.09307935  0.73818340    -0.58500
N1417       N  0.41229212  0.94235570  0.72697373    -0.04200
N1418       N  0.38901793  0.90624869  0.70871577    -0.59800
N1419       N  0.37988921  0.94259950  0.74452042    -0.06100
N1420       N  0.33370571  0.90744330  0.73777577    -0.58800
N1421       N  0.47055519  0.05961595  0.72751532    -0.03800
N1422       N  0.48307286  0.09573006  0.70934533    -0.59900
Mn1423     Mn  0.49249947  0.00148115  0.72663770     1.18400
C1424       C  0.45450580  0.11621880  0.71576411     0.98400
C1425       C  0.33982785  0.88480009  0.71520854     0.99100
N1426       N  0.60542059  0.05910416  0.81063952    -0.06100
N1427       N  0.65121052  0.09567955  0.81728239    -0.62400
N1428       N  0.51382457  0.94200653  0.82729102    -0.04900
N1429       N  0.49919051  0.90508030  0.84497370    -0.63100
N1430       N  0.54664536  0.94198628  0.81001308    -0.05600
N1431       N  0.55552025  0.90514516  0.81646397    -0.62700
N1432       N  0.57261202  0.05837293  0.82822621    -0.04500
N1433       N  0.59521070  0.09436921  0.84651367    -0.63300
Mn1434     Mn  0.57819831  0.00094911  0.77724880     1.10700
C1435       C  0.64435533  0.11803066  0.83987500     0.99600
C1436       C  0.52513740  0.88194465  0.83854031     0.99700
N1437       N  0.37970055  0.94208661  0.81041345    -0.05600
N1438       N  0.33333325  0.90723936  0.81699261    -0.61000
N1439       N  0.47080436  0.05876199  0.82822250    -0.04900
N1440       N  0.48379191  0.09498231  0.84641080    -0.57700
N1441       N  0.43766548  0.05807585  0.81088579    -0.06200
N1442       N  0.42639754  0.09300938  0.81774429    -0.60500
N1443       N  0.41182402  0.94124181  0.82792909    -0.05200
N1444       N  0.38808557  0.90494490  0.84605790    -0.57700
Mn1445     Mn  0.40703887  0.00032394  0.77770414     1.20200
Mn1446     Mn  0.49235789  0.00011148  0.82845231     1.10100
Cl1447     Cl  0.49254986  0.00069957  0.77752189    -0.85700
C1448       C  0.33894733  0.88405516  0.83943064     0.96600
C1449       C  0.45556105  0.11597703  0.84012890     0.96400
N1450       N  0.94224511  0.54553815  0.80987736    -0.05800
N1451       N  0.90611815  0.55523728  0.81682033    -0.58000
N1452       N  0.05926653  0.57144251  0.82699556    -0.05500
N1453       N  0.09511010  0.59409114  0.84532533    -0.60100
N1454       N  0.05917182  0.60423979  0.80971830    -0.05100
N1455       N  0.09483801  0.65017285  0.81675787    -0.57900
N1456       N  0.94284420  0.51318159  0.82730653    -0.04800
N1457       N  0.90702998  0.49988998  0.84569776    -0.60400
C1458       C  0.88385466  0.52597775  0.83940548     0.96300
C1459       C  0.11749739  0.64331445  0.83921020     0.96100
N1460       N  0.05943056  0.43713250  0.80935668    -0.06000
N1461       N  0.09382049  0.42509461  0.81611771    -0.58500
N1462       N  0.94306738  0.41118812  0.82714987    -0.04200
N1463       N  0.90742546  0.38748247  0.84558372    -0.59800
N1464       N  0.94390134  0.37905985  0.80963308    -0.06100
N1465       N  0.90962693  0.33265149  0.81651630    -0.58800
N1466       N  0.06021335  0.47002307  0.82690620    -0.03800
N1467       N  0.09603876  0.48207230  0.84524614    -0.59900
Mn1468     Mn  0.00135093  0.49153260  0.82756126     1.18400
C1469       C  0.11669382  0.45362002  0.83867533     0.98400
C1470       C  0.88687947  0.33837339  0.83913105     0.99100
N1471       N  0.05896325  0.60410184  0.74343304    -0.06100
N1472       N  0.09558785  0.64986581  0.73688707    -0.62400
N1473       N  0.94215047  0.51292895  0.72601054    -0.04900
N1474       N  0.90591088  0.49931834  0.70785399    -0.63100
N1475       N  0.94176203  0.54528733  0.74351268    -0.05600
N1476       N  0.90525534  0.55459635  0.73689838    -0.62700
N1477       N  0.05860922  0.57135064  0.72595849    -0.04500
N1478       N  0.09503384  0.59385179  0.70793426    -0.63300
Mn1479     Mn  0.00051875  0.57680594  0.77661344     1.10700
C1480       C  0.11834158  0.64295534  0.71451200     0.99600
C1481       C  0.88256550  0.52512153  0.71444832     0.99700
N1482       N  0.94352177  0.37920119  0.74395007    -0.05600
N1483       N  0.90851943  0.33282254  0.73761969    -0.61000
N1484       N  0.05980656  0.47036347  0.72615456    -0.04900
N1485       N  0.09646875  0.48364570  0.70820898    -0.57700
N1486       N  0.05930142  0.43756420  0.74366595    -0.06200
N1487       N  0.09471141  0.42678684  0.73721390    -0.60500
N1488       N  0.94223237  0.41116862  0.72650317    -0.05200
N1489       N  0.90539553  0.38739218  0.70873535    -0.57700
Mn1490     Mn  0.00155122  0.40668440  0.77659741     1.20200
Mn1491     Mn  0.00065717  0.49144460  0.72558404     1.10100
Cl1492     Cl  0.00099638  0.49166941  0.77659011    -0.85700
C1493       C  0.88479485  0.33837961  0.71544204     0.96600
C1494       C  0.11783934  0.45587169  0.71486875     0.96400
loop_ 
_geom_bond_atom_site_label_1 
_geom_bond_atom_site_label_2 
_geom_bond_distance 
_geom_bond_site_symmetry_2 
_ccdc_geom_bond_type 
N1            C6   1.345       .  A
N1            C5   1.348       .  A
N1           H33   1.042       .  S
N2            C9   1.357       .  A
N2           C10   1.353       .  A
N3            C8   1.362       .  A
N3            C7   1.363       .  A
N3           H34   1.037       .  S
N4           C11   1.357       .  A
N4           C12   1.356       .  A
C5           C13   1.386       .  A
C5           C21   1.402       .  A
C6           C22   1.404       .  A
C6           C14   1.388       .  A
C7           C15   1.390       .  A
C7           C24   1.438       .  A
C8           C23   1.434       .  A
C8           C16   1.387       .  A
C9           C21   1.410       .  A
C9           C17   1.375       .  A
C10          C24   1.434       .  A
C10          C18   1.397       .  A
C11          C19   1.381       .  A
C11          C22   1.418       .  A
C12          C20   1.394       .  A
C12          C23   1.432       .  A
C13          C14   1.372       .  A
C13          H25   1.082       .  S
C14          H26   1.082       .  S
C15          C16   1.385       .  A
C15          H27   1.080       .  S
C16          H28   1.081       .  S
C17          C18   1.372       .  A
C17          H29   1.083       .  S
C18          H30   1.077       .  S
C19          C20   1.368       .  A
C19          H31   1.082       .  S
C20          H32   1.078       .  S
C21         C157   1.499       .  S
C22         C599   1.496       .  S
C23         C633   1.509       .  S
C24         C666   1.519       .  S
N35          C40   1.348       .  A
N35          C39   1.347       .  A
N35          H67   1.042       .  S
N36          C43   1.357       .  A
N36          C44   1.356       .  A
N37          C42   1.361       .  A
N37          C41   1.358       .  A
N37          H68   1.038       .  S
N38          C45   1.354       .  A
N38          C46   1.351       .  A
C39          C47   1.388       .  A
C39          C55   1.407       .  A
C40          C56   1.404       .  A
C40          C48   1.386       .  A
C41          C49   1.388       .  A
C41          C58   1.431       .  A
C42          C57   1.431       .  A
C42          C50   1.388       .  A
C43          C55   1.418       .  A
C43          C51   1.380       .  A
C44          C58   1.431       .  A
C44          C52   1.394       .  A
C45          C53   1.376       .  A
C45          C56   1.407       .  A
C46          C54   1.397       .  A
C46          C57   1.430       .  A
C47          C48   1.374       .  A
C47          H59   1.082       .  S
C48          H60   1.082       .  S
C49          C50   1.384       .  A
C49          H61   1.081       .  S
C50          H62   1.081       .  S
C51          C52   1.367       .  A
C51          H63   1.082       .  S
C52          H64   1.077       .  S
C53          C54   1.371       .  A
C53          H65   1.082       .  S
C54          H66   1.078       .  S
C55         C602   1.499       .  S
C56         C160   1.497       .  S
C57         C689   1.511       .  S
C58         C656   1.501       .  S
N69          C74   1.345       .  A
N69          C73   1.347       .  A
N69         H101   1.043       .  S
N70          C77   1.353       .  A
N70          C78   1.351       .  A
N71          C76   1.359       .  A
N71          C75   1.365       .  A
N71         H102   1.039       .  S
N72          C79   1.357       .  A
N72          C80   1.355       .  A
C73          C81   1.386       .  A
C73          C89   1.402       .  A
C74          C90   1.401       .  A
C74          C82   1.387       .  A
C75          C83   1.389       .  A
C75          C92   1.437       .  A
C76          C91   1.433       .  A
C76          C84   1.388       .  A
C77          C89   1.408       .  A
C77          C85   1.377       .  A
C78          C92   1.430       .  A
C78          C86   1.396       .  A
C79          C87   1.380       .  A
C79          C90   1.417       .  A
C80          C88   1.395       .  A
C80          C91   1.432       .  A
C81          C82   1.373       .  A
C81          H93   1.082       .  S
C82          H94   1.082       .  S
C83          C84   1.386       .  A
C83          H95   1.080       .  S
C84          H96   1.081       .  S
C85          C86   1.374       .  A
C85          H97   1.082       .  S
C86          H98   1.078       .  S
C87          C88   1.370       .  A
C87          H99   1.082       .  S
C88         H100   1.078       .  S
C89         C159   1.495       .  S
C90         C498   1.497       .  S
C91         C723   1.504       .  S
C92         C688   1.521       .  S
N103        C108   1.347       .  A
N103        C107   1.348       .  A
N103        H135   1.042       .  S
N104        C111   1.355       .  A
N104        C112   1.353       .  A
N105        C110   1.360       .  A
N105        C109   1.363       .  A
N105        H136   1.037       .  S
N106        C113   1.356       .  A
N106        C114   1.353       .  A
C107        C115   1.386       .  A
C107        C123   1.402       .  A
C108        C124   1.404       .  A
C108        C116   1.387       .  A
C109        C117   1.389       .  A
C109        C126   1.436       .  A
C110        C125   1.431       .  A
C110        C118   1.387       .  A
C111        C123   1.409       .  A
C111        C119   1.375       .  A
C112        C126   1.434       .  A
C112        C120   1.399       .  A
C113        C121   1.380       .  A
C113        C124   1.414       .  A
C114        C122   1.395       .  A
C114        C125   1.429       .  A
C115        C116   1.372       .  A
C115        H127   1.082       .  S
C116        H128   1.082       .  S
C117        C118   1.383       .  A
C117        H129   1.081       .  S
C118        H130   1.081       .  S
C119        C120   1.370       .  A
C119        H131   1.083       .  S
C120        H132   1.076       .  S
C121        C122   1.367       .  A
C121        H133   1.082       .  S
C122        H134   1.078       .  S
C123        C158   1.496       .  S
C124        C499   1.497       .  S
C125        C746   1.500       .  S
C126        C667   1.514       .  S
N137        C142   1.353   1_565  A
N137        C141   1.353       .  A
N137        H169   1.041   1_565  S
N138        C145   1.353       .  A
N138        C146   1.352       .  A
N139        C144   1.353       .  A
N139        C143   1.354   1_545  A
N139        H917   1.041       .  S
N140        C147   1.353       .  A
N140        C148   1.353       .  A
C141        C149   1.387       .  A
C141        C157   1.412       .  A
C142        C158   1.411       .  A
C142        C150   1.387       .  A
C143        C151   1.387       .  A
C143        C160   1.414       .  A
C144        C159   1.413       .  A
C144        C152   1.388       .  A
C145        C157   1.416       .  A
C145        C153   1.386       .  A
C146        C154   1.386       .  A
C146        C907   1.415   1_554  A
C147        C155   1.386       .  A
C147        C158   1.415       .  A
C148        C156   1.386       .  A
C148        C906   1.416   1_554  A
C149        C150   1.368   1_565  A
C149        H161   1.082       .  S
C150        H162   1.082       .  S
C151        C152   1.368   1_565  A
C151        H163   1.082       .  S
C152        H164   1.082       .  S
C153        C154   1.375       .  A
C153        H165   1.082       .  S
C154        H166   1.082   1_554  S
C155        C156   1.375       .  A
C155        H167   1.082       .  S
C156        H168   1.082       .  S
C159        C895   1.416       .  A
C160        C893   1.415       .  A
H170        N886   1.041   1_554  S
N171        C176   1.347       .  A
N171        C175   1.346       .  A
N171        H203   1.039       .  S
N172        C179   1.354       .  A
N172        C180   1.354       .  A
N173        C178   1.359       .  A
N173        C177   1.365       .  A
N173        H204   1.035       .  S
N174        C181   1.359       .  A
N174        C182   1.355       .  A
C175        C183   1.387       .  A
C175        C191   1.403       .  A
C176        C192   1.404       .  A
C176        C184   1.388       .  A
C177        C185   1.389       .  A
C177        C194   1.437       .  A
C178        C193   1.434       .  A
C178        C186   1.389       .  A
C179        C191   1.409       .  A
C179        C187   1.376       .  A
C180        C194   1.431       .  A
C180        C188   1.396       .  A
C181        C189   1.379       .  A
C181        C192   1.417       .  A
C182        C190   1.396       .  A
C182        C193   1.433       .  A
C183        C184   1.372       .  A
C183        H195   1.082       .  S
C184        H196   1.083       .  S
C185        C186   1.385       .  A
C185        H197   1.081       .  S
C186        H198   1.081       .  S
C187        C188   1.370       .  A
C187        H199   1.083       .  S
C188        H200   1.077       .  S
C189        C190   1.367       .  A
C189        H201   1.082       .  S
C190        H202   1.077       .  S
C191        C566   1.492       .  S
C192        C601   1.501       .  S
C193        C657   1.502       .  S
C194        C711   1.521       .  S
N205        C210   1.347       .  A
N205        C209   1.346       .  A
N205        H237   1.042       .  S
N206        C213   1.358       .  A
N206        C214   1.354       .  A
N207        C212   1.364       .  A
N207        C211   1.358       .  A
N207        H238   1.039       .  S
N208        C215   1.353       .  A
N208        C216   1.352       .  A
C209        C217   1.387       .  A
C209        C225   1.403       .  A
C210        C226   1.402       .  A
C210        C218   1.387       .  A
C211        C219   1.388       .  A
C211        C228   1.432       .  A
C212        C227   1.436       .  A
C212        C220   1.389       .  A
C213        C225   1.418       .  A
C213        C221   1.380       .  A
C214        C228   1.431       .  A
C214        C222   1.395       .  A
C215        C223   1.377       .  A
C215        C226   1.407       .  A
C216        C224   1.396       .  A
C216        C227   1.429       .  A
C217        C218   1.373       .  A
C217        H229   1.082       .  S
C218        H230   1.082       .  S
C219        C220   1.385       .  A
C219        H231   1.081       .  S
C220        H232   1.080       .  S
C221        C222   1.368       .  A
C221        H233   1.082       .  S
C222        H234   1.078       .  S
C223        C224   1.373       .  A
C223        H235   1.083       .  S
C224        H236   1.078       .  S
C225        C600   1.499       .  S
C226        C567   1.492       .  S
C227        C734   1.519       .  S
C228        C632   1.501       .  S
N239        C244   1.345       .  A
N239        C243   1.347       .  A
N239        H271   1.042       .  S
N240        C247   1.355       .  A
N240        C248   1.351       .  A
N241        C246   1.361       .  A
N241        C245   1.363       .  A
N241        H272   1.039       .  S
N242        C249   1.356       .  A
N242        C250   1.356       .  A
C243        C251   1.386       .  A
C243        C259   1.402       .  A
C244        C260   1.404       .  A
C244        C252   1.388       .  A
C245        C253   1.389       .  A
C245        C262   1.436       .  A
C246        C261   1.434       .  A
C246        C254   1.388       .  A
C247        C259   1.407       .  A
C247        C255   1.376       .  A
C248        C262   1.430       .  A
C248        C256   1.397       .  A
C249        C257   1.379       .  A
C249        C260   1.416       .  A
C250        C258   1.395       .  A
C250        C261   1.432       .  A
C251        C252   1.374       .  A
C251        H263   1.082       .  S
C252        H264   1.082       .  S
C253        C254   1.386       .  A
C253        H265   1.081       .  S
C254        H266   1.081       .  S
C255        C256   1.372       .  A
C255        H267   1.083       .  S
C256        H268   1.078       .  S
C257        C258   1.368       .  A
C257        H269   1.082       .  S
C258        H270   1.077       .  S
C259        C568   1.495       .  S
C260        C531   1.495       .  S
C261        C678   1.508       .  S
C262        C733   1.515       .  S
N273        C278   1.348       .  A
N273        C277   1.347       .  A
N273        H305   1.042       .  S
N274        C281   1.358       .  A
N274        C282   1.356       .  A
N275        C280   1.363       .  A
N275        C279   1.360       .  A
N275        H306   1.037       .  S
N276        C283   1.355       .  A
N276        C284   1.353       .  A
C277        C285   1.388       .  A
C277        C293   1.406       .  A
C278        C294   1.403       .  A
C278        C286   1.386       .  A
C279        C287   1.388       .  A
C279        C296   1.434       .  A
C280        C295   1.435       .  A
C280        C288   1.389       .  A
C281        C293   1.419       .  A
C281        C289   1.381       .  A
C282        C296   1.432       .  A
C282        C290   1.394       .  A
C283        C291   1.376       .  A
C283        C294   1.409       .  A
C284        C292   1.397       .  A
C284        C295   1.433       .  A
C285        C286   1.372       .  A
C285       H1044   1.082       .  S
C286       H1045   1.082       .  S
C287        C288   1.385       .  A
C287        H299   1.081       .  S
C288        H300   1.081       .  S
C289        C290   1.368       .  A
C289        H301   1.082       .  S
C290        H302   1.078       .  S
C291        C292   1.372       .  A
C291        H303   1.083       .  S
C292        H304   1.077       .  S
C293        C534   1.500       .  S
C294        C565   1.497       .  S
C295        C712   1.516       .  S
C296        C701   1.507       .  S
H297       C1032   1.082       .  S
H298       C1033   1.082       .  S
N307        C312   1.348       .  A
N307        C311   1.347       .  A
N307        H339   1.043       .  S
N308        C315   1.357       .  A
N308        C316   1.355       .  A
N309        C314   1.361       .  A
N309        C313   1.358       .  A
N309        H340   1.042       .  S
N310        C317   1.354       .  A
N310        C318   1.352       .  A
C311        C319   1.388       .  A
C311        C327   1.406       .  A
C312        C328   1.405       .  A
C312        C320   1.386       .  A
C313        C321   1.388       .  A
C313        C330   1.430       .  A
C314        C329   1.433       .  A
C314        C322   1.389       .  A
C315        C327   1.417       .  A
C315        C323   1.380       .  A
C316        C330   1.432       .  A
C316        C324   1.395       .  A
C317        C325   1.377       .  A
C317        C328   1.408       .  A
C318        C326   1.396       .  A
C318        C329   1.429       .  A
C319        C320   1.375       .  A
C319        H331   1.082       .  S
C320        H332   1.082       .  S
C321        C322   1.384       .  A
C321        H333   1.081       .  S
C322        H334   1.080       .  S
C323        C324   1.369       .  A
C323        H335   1.082       .  S
C324        H336   1.077       .  S
C325        C326   1.373       .  A
C325        H337   1.082       .  S
C326        H338   1.079       .  S
C327        C532   1.500       .  S
C328        C395   1.496       .  S
C329        C622   1.513       .  S
C330        C677   1.502       .  S
N341        C346   1.346       .  A
N341        C345   1.345       .  A
N341        H373   1.040       .  S
N342        C349   1.357       .  A
N342        C350   1.355       .  A
N343        C348   1.363       .  A
N343        C347   1.360       .  A
N343        H374   1.034       .  S
N344        C351   1.355       .  A
N344        C352   1.352       .  A
C345        C353   1.389       .  A
C345        C361   1.403       .  A
C346        C362   1.400       .  A
C346        C354   1.386       .  A
C347        C355   1.388       .  A
C347        C364   1.433       .  A
C348        C363   1.435       .  A
C348        C356   1.389       .  A
C349        C361   1.416       .  A
C349        C357   1.380       .  A
C350        C364   1.431       .  A
C350        C358   1.395       .  A
C351        C359   1.376       .  A
C351        C362   1.407       .  A
C352        C360   1.396       .  A
C352        C363   1.430       .  A
C353        C354   1.373       .  A
C353       H1112   1.083       .  S
C354       H1113   1.083       .  S
C355        C356   1.385       .  A
C355        H367   1.081       .  S
C356        H368   1.080       .  S
C357        C358   1.368       .  A
C357        H369   1.082       .  S
C358        H370   1.077       .  S
C359        C360   1.373       .  A
C359        H371   1.083       .  S
C360        H372   1.078       .  S
C361        C533   1.495       .  S
C362        C398   1.492       .  S
C363        C643   1.517       .  S
C364        C702   1.506       .  S
H365       C1100   1.083       .  S
H366       C1101   1.083       .  S
N375        C380   1.353       .  A
N375        C379   1.354       .  A
N375        H407   1.042       .  S
N376        C383   1.352       .  A
N376        C384   1.352       .  A
N377        C382   1.352       .  A
N377        C381   1.351       .  A
N377       H1155   1.041       .  S
N378        C385   1.350       .  A
N378        C386   1.351       .  A
C379        C387   1.386       .  A
C379        C395   1.412       .  A
C380        C396   1.413       .  A
C380        C388   1.388       .  A
C381        C389   1.388       .  A
C381        C398   1.410       .  A
C382        C397   1.410       .  A
C382        C390   1.387       .  A
C383        C395   1.414       .  A
C383        C391   1.386       .  A
C384        C392   1.386       .  A
C384       C1145   1.415   1_554  A
C385        C393   1.387       .  A
C385        C396   1.413       .  A
C386        C394   1.386       .  A
C386       C1144   1.413   1_554  A
C387        C388   1.368       .  A
C387        H399   1.082       .  S
C388        H400   1.082       .  S
C389        C390   1.369       .  A
C389        H401   1.082       .  S
C390        H402   1.082       .  S
C391        C392   1.376       .  A
C391        H403   1.082       .  S
C392        H404   1.082       .  S
C393        C394   1.376       .  A
C393        H405   1.082       .  S
C394        H406   1.082   1_554  S
C396        C463   1.495       .  S
C397       C1133   1.413       .  A
C397        C430   1.494       .  S
C398       C1131   1.415       .  A
H408       N1124   1.041   1_554  S
N409        C414   1.348       .  A
N409        C413   1.346       .  A
N409        H441   1.043       .  S
N410        C417   1.357       .  A
N410        C418   1.354       .  A
N411        C416   1.362       .  A
N411        C415   1.360       .  A
N411        H442   1.039       .  S
N412        C419   1.355       .  A
N412        C420   1.352       .  A
C413        C421   1.388       .  A
C413        C429   1.404       .  A
C414        C430   1.401       .  A
C414        C422   1.385       .  A
C415        C423   1.387       .  A
C415        C432   1.432       .  A
C416        C431   1.435       .  A
C416        C424   1.389       .  A
C417        C429   1.417       .  A
C417        C425   1.382       .  A
C418        C432   1.430       .  A
C418        C426   1.394       .  A
C419        C427   1.375       .  A
C419        C430   1.406       .  A
C420        C428   1.399       .  A
C420        C431   1.434       .  A
C421        C422   1.371       .  A
C421        H433   1.082       .  S
C422        H434   1.082       .  S
C423        C424   1.383       .  A
C423        H435   1.081       .  S
C424        H436   1.080       .  S
C425        C426   1.368       .  A
C425        H437   1.082       .  S
C426        H438   1.079       .  S
C427        C428   1.369       .  A
C427        H439   1.083       .  S
C428        H440   1.076       .  S
C429        C497   1.495       .  S
C431        C644   1.513       .  S
C432        C722   1.503       .  S
N443        C448   1.348       .  A
N443        C447   1.348       .  A
N443        H475   1.041       .  S
N444        C451   1.355       .  A
N444        C452   1.353       .  A
N445        C450   1.359       .  A
N445        C449   1.363       .  A
N445        H476   1.039       .  S
N446        C453   1.357       .  A
N446        C454   1.355       .  A
C447        C455   1.387       .  A
C447        C463   1.405       .  A
C448        C464   1.406       .  A
C448        C456   1.388       .  A
C449        C457   1.389       .  A
C449        C466   1.435       .  A
C450        C465   1.431       .  A
C450        C458   1.387       .  A
C451        C463   1.409       .  A
C451        C459   1.376       .  A
C452        C466   1.434       .  A
C452        C460   1.398       .  A
C453        C461   1.380       .  A
C453        C464   1.416       .  A
C454        C462   1.394       .  A
C454        C465   1.430       .  A
C455        C456   1.372       .  A
C455        H467   1.082       .  S
C456        H468   1.082       .  S
C457        C458   1.384       .  A
C457        H469   1.080       .  S
C458        H470   1.081       .  S
C459        C460   1.370       .  A
C459        H471   1.083       .  S
C460        H472   1.077       .  S
C461        C462   1.366       .  A
C461        H473   1.082       .  S
C462        H474   1.077       .  S
C464        C500   1.499       .  S
C465        C747   1.504       .  S
C466        C621   1.516       .  S
N477        C482   1.347   1_455  A
N477        C481   1.346       .  A
N477       H1256   1.043       .  S
N478        C485   1.348       .  A
N478        C486   1.348       .  A
N479        C484   1.348   1_455  A
N479        C483   1.349       .  A
N479        H510   1.043       .  S
N480        C487   1.350       .  A
N480        C488   1.349       .  A
C481        C489   1.387       .  A
C481        C497   1.406       .  A
C482        C498   1.405       .  A
C482        C490   1.386       .  A
C483        C491   1.387       .  A
C483        C500   1.411       .  A
C484        C499   1.410       .  A
C484        C492   1.387       .  A
C485        C493   1.387       .  A
C485       C1244   1.414   1_554  A
C486        C500   1.414       .  A
C486        C494   1.387       .  A
C487        C495   1.386       .  A
C487       C1245   1.416   1_554  A
C488        C496   1.388       .  A
C488        C499   1.416       .  A
C489        C490   1.377   1_455  A
C489        H501   1.082       .  S
C490        H502   1.082       .  S
C491        C492   1.380   1_455  A
C491        H503   1.082       .  S
C492        H504   1.082       .  S
C493        C494   1.380       .  A
C493        H505   1.082       .  S
C494        H506   1.082       .  S
C495        C496   1.380       .  A
C495        H507   1.082       .  S
C496        H508   1.082       .  S
C497       C1232   1.414       .  A
C498       C1234   1.416       .  A
H509       N1224   1.043   1_554  S
N511        C516   1.350       .  A
N511        C515   1.348   1_545  A
N511        H543   1.042       .  S
N512        C519   1.349       .  A
N512        C520   1.351       .  A
N513        C518   1.347   1_565  A
N513        C517   1.348       .  A
N513       H1291   1.043       .  S
N514        C521   1.350       .  A
N514        C522   1.349       .  A
C515        C523   1.388       .  A
C515        C531   1.410       .  A
C516        C532   1.410       .  A
C516        C524   1.387       .  A
C517        C525   1.387       .  A
C517        C534   1.408       .  A
C518        C533   1.407       .  A
C518        C526   1.387       .  A
C519        C531   1.416       .  A
C519        C527   1.387       .  A
C520        C528   1.386       .  A
C520       C1281   1.416   1_554  A
C521        C529   1.386       .  A
C521        C532   1.415       .  A
C522        C530   1.387       .  A
C522       C1280   1.415   1_554  A
C523        C524   1.378   1_565  A
C523        H535   1.082       .  S
C524        H536   1.082       .  S
C525        C526   1.377   1_565  A
C525        H537   1.082       .  S
C526        H538   1.082       .  S
C527        C528   1.379       .  A
C527        H539   1.082       .  S
C528        H540   1.082       .  S
C529        C530   1.378       .  A
C529        H541   1.082       .  S
C530        H542   1.082       .  S
C533       C1269   1.415       .  A
C534       C1267   1.416       .  A
H544       N1260   1.043   1_554  S
N545        C550   1.351       .  A
N545        C549   1.353   1_655  A
N545       H1324   1.041       .  S
N546        C553   1.353       .  A
N546        C554   1.353       .  A
N547        C552   1.352       .  A
N547        C551   1.353   1_655  A
N547        H578   1.041       .  S
N548        C555   1.352       .  A
N548        C556   1.352       .  A
C549        C557   1.387       .  A
C549        C565   1.411       .  A
C550        C566   1.411       .  A
C550        C558   1.388       .  A
C551        C559   1.387       .  A
C551        C568   1.411       .  A
C552        C567   1.412       .  A
C552        C560   1.388       .  A
C553        C561   1.385       .  A
C553       C1312   1.416   1_554  A
C554        C568   1.415       .  A
C554        C562   1.385       .  A
C555        C563   1.386       .  A
C555       C1313   1.414   1_554  A
C556        C564   1.386       .  A
C556        C567   1.414       .  A
C557        C558   1.367   1_455  A
C557        H569   1.082       .  S
C558        H570   1.082       .  S
C559        C560   1.369   1_455  A
C559        H571   1.082       .  S
C560        H572   1.082       .  S
C561        C562   1.375       .  A
C561        H573   1.082       .  S
C562        H574   1.082       .  S
C563        C564   1.374       .  A
C563        H575   1.082   1_554  S
C564        H576   1.082       .  S
C565       C1300   1.416       .  A
C566       C1302   1.414       .  A
H577       N1292   1.041   1_554  S
N579        C584   1.347       .  A
N579        C583   1.347       .  A
N579        H611   1.043       .  S
N580        C587   1.349       .  A
N580        C588   1.349       .  A
N581        C586   1.349       .  A
N581        C585   1.349       .  A
N581       H1359   1.043       .  S
N582        C589   1.351       .  A
N582        C590   1.350       .  A
C583        C591   1.387       .  A
C583        C599   1.407       .  A
C584        C600   1.407       .  A
C584        C592   1.387       .  A
C585        C593   1.387       .  A
C585        C602   1.410       .  A
C586        C601   1.411       .  A
C586        C594   1.387       .  A
C587        C599   1.416       .  A
C587        C595   1.387       .  A
C588        C596   1.387       .  A
C588       C1349   1.415   1_554  A
C589        C597   1.386       .  A
C589        C600   1.417       .  A
C590        C598   1.387       .  A
C590       C1348   1.417   1_554  A
C591        C592   1.377       .  A
C591        H603   1.082       .  S
C592        H604   1.082       .  S
C593        C594   1.378       .  A
C593        H605   1.082       .  S
C594        H606   1.082       .  S
C595        C596   1.379       .  A
C595        H607   1.082       .  S
C596        H608   1.082   1_554  S
C597        C598   1.380       .  A
C597        H609   1.082       .  S
C598        H610   1.082   1_554  S
C601       C1337   1.417       .  A
C602       C1335   1.415       .  A
H612       N1328   1.043   1_554  S
N613        N614   1.332       .  A
N613        N619   1.314       .  A
N613       Mn642   2.242       .  S
N614        C621   1.367       .  A
N615        N617   1.314       .  A
N615        N616   1.314       .  A
N615       Mn631   2.206       .  S
N616        C622   1.350       .  A
N617        N618   1.331       .  A
N617       Mn642   2.236       .  S
N618        C622   1.365       .  A
N619        N620   1.313       .  A
N619       Mn631   2.199       .  S
N620        C621   1.347       .  A
N623        N629   1.314       .  A
N623        N624   1.327       .  A
N623       Mn653   2.218       .  S
N624        C632   1.360       .  A
N625        N626   1.319       .  A
N625        N627   1.314       .  A
N625       Mn631   2.222       .  S
N626        C633   1.355       .  A
N627        N628   1.329       .  A
N627       Mn653   2.226       .  S
N628        C633   1.362       .  A
N629        N630   1.318       .  A
N629       Mn631   2.214       .  S
N630        C632   1.354       .  A
Mn631      Cl655   2.466       .  S
N634        N635   1.332       .  A
N634        N640   1.314       .  A
N634       Mn642   2.243       .  S
N635        C643   1.366       .  A
N636        N638   1.314       .  A
N636        N637   1.313       .  A
N636       Mn654   2.200       .  S
N637        C644   1.348       .  A
N638        N639   1.331       .  A
N638       Mn642   2.236       .  S
N639        C644   1.366       .  A
N640        N641   1.315       .  A
N640       Mn654   2.206       .  S
N641        C643   1.350       .  A
Mn642      Cl655   2.634       .  S
N645        N646   1.327       .  A
N645        N651   1.314       .  A
N645       Mn653   2.215       .  S
N646        C656   1.359       .  A
N647        N648   1.318       .  A
N647        N649   1.315       .  A
N647       Mn654   2.215       .  S
N648        C657   1.354       .  A
N649        N650   1.327       .  A
N649       Mn653   2.221       .  S
N650        C657   1.360       .  A
N651        N652   1.318       .  A
N651       Mn654   2.215       .  S
N652        C656   1.354       .  A
Mn653      Cl655   2.629       .  S
Mn654      Cl655   2.466       .  S
N658        N659   1.332       .  A
N658        N664   1.314       .  A
N658       Mn687   2.243   1_565  S
N659        C666   1.367       .  A
N660        N662   1.314       .  A
N660        N661   1.314       .  A
N660       Mn676   2.206       .  S
N661        C667   1.349       .  A
N662        N663   1.331       .  A
N662       Mn687   2.236       .  S
N663        C667   1.366       .  A
N664        N665   1.315       .  A
N664       Mn676   2.206   1_565  S
N665        C666   1.349       .  A
N668        N674   1.314       .  A
N668        N669   1.328       .  A
N668       Mn698   2.223       .  S
N669        C677   1.361       .  A
N670        N671   1.319       .  A
N670        N672   1.315       .  A
N670       Mn676   2.220   1_565  S
N671        C678   1.354       .  A
N672        N673   1.329       .  A
N672       Mn698   2.229   1_565  S
N673        C678   1.361       .  A
N674        N675   1.318       .  A
N674       Mn676   2.210       .  S
N675        C677   1.352       .  A
Mn676      Cl700   2.469       .  S
N679        N680   1.333       .  A
N679        N685   1.315       .  A
N679       Mn687   2.245       .  S
N680        C688   1.366       .  A
N681        N683   1.314       .  A
N681        N682   1.312       .  A
N681       Mn699   2.199   1_565  S
N682        C689   1.348       .  A
N683        N684   1.332       .  A
N683       Mn687   2.238   1_565  S
N684        C689   1.366       .  A
N685        N686   1.316       .  A
N685       Mn699   2.214       .  S
N686        C688   1.351       .  A
Mn687      Cl700   2.636       .  S
N690        N691   1.328       .  A
N690        N696   1.315       .  A
N690       Mn698   2.223   1_565  S
N691        C701   1.360       .  A
N692        N693   1.319       .  A
N692        N694   1.315       .  A
N692       Mn699   2.216       .  S
N693        C702   1.353       .  A
N694        N695   1.328       .  A
N694       Mn698   2.230       .  S
N695        C702   1.361       .  A
N696        N697   1.320       .  A
N696       Mn699   2.225   1_565  S
N697        C701   1.355       .  A
Mn698      Cl700   2.630       .  S
Mn699      Cl700   2.471       .  S
N703        N704   1.333       .  A
N703        N709   1.315       .  A
N703       Mn732   2.243   1_655  S
N704        C711   1.366       .  A
N705        N707   1.314       .  A
N705        N706   1.315       .  A
N705       Mn721   2.204       .  S
N706        C712   1.349       .  A
N707        N708   1.332       .  A
N707       Mn732   2.244       .  S
N708        C712   1.366       .  A
N709        N710   1.316       .  A
N709       Mn721   2.214   1_655  S
N710        C711   1.351       .  A
N713        N719   1.315       .  A
N713        N714   1.327       .  A
N713       Mn743   2.217       .  S
N714        C722   1.360       .  A
N715        N716   1.318       .  A
N715        N717   1.315       .  A
N715       Mn721   2.217   1_655  S
N716        C723   1.354       .  A
N717        N718   1.328       .  A
N717       Mn743   2.222   1_655  S
N718        C723   1.360       .  A
N719        N720   1.319       .  A
N719       Mn721   2.221       .  S
N720        C722   1.354       .  A
Mn721      Cl745   2.473       .  S
N724        N725   1.332       .  A
N724        N730   1.314       .  A
N724       Mn732   2.243       .  S
N725        C733   1.366       .  A
N726        N728   1.315       .  A
N726        N727   1.316       .  A
N726       Mn744   2.210   1_655  S
N727        C734   1.351       .  A
N728        N729   1.332       .  A
N728       Mn732   2.246   1_655  S
N729        C734   1.366       .  A
N730        N731   1.315       .  A
N730       Mn744   2.204       .  S
N731        C733   1.350       .  A
Mn732      Cl745   2.632       .  S
N735        N736   1.327       .  A
N735        N741   1.315       .  A
N735       Mn743   2.216   1_655  S
N736        C746   1.359       .  A
N737        N738   1.319       .  A
N737        N739   1.315       .  A
N737       Mn744   2.221       .  S
N738        C747   1.355       .  A
N739        N740   1.327       .  A
N739       Mn743   2.221       .  S
N740        C747   1.360       .  A
N741        N742   1.318       .  A
N741       Mn744   2.217   1_655  S
N742        C746   1.354       .  A
Mn743      Cl745   2.628       .  S
Mn744      Cl745   2.475       .  S
N748        C753   1.345       .  A
N748        C752   1.348       .  A
N748        H780   1.042       .  S
N749        C756   1.357       .  A
N749        C757   1.353       .  A
N750        C755   1.362       .  A
N750        C754   1.363       .  A
N750        H781   1.037       .  S
N751        C758   1.357       .  A
N751        C759   1.356       .  A
C752        C760   1.386       .  A
C752        C768   1.402       .  A
C753        C769   1.404       .  A
C753        C761   1.388       .  A
C754        C762   1.390       .  A
C754        C771   1.438       .  A
C755        C770   1.434       .  A
C755        C763   1.387       .  A
C756        C768   1.410       .  A
C756        C764   1.375       .  A
C757        C771   1.434       .  A
C757        C765   1.397       .  A
C758        C766   1.381       .  A
C758        C769   1.418       .  A
C759        C767   1.394       .  A
C759        C770   1.432       .  A
C760        C761   1.372       .  A
C760        H772   1.082       .  S
C761        H773   1.082       .  S
C762        C763   1.385       .  A
C762        H774   1.080       .  S
C763        H775   1.081       .  S
C764        C765   1.372       .  A
C764        H776   1.083       .  S
C765        H777   1.077       .  S
C766        C767   1.368       .  A
C766        H778   1.082       .  S
C767        H779   1.078       .  S
C768        C904   1.499       .  S
C769       C1346   1.496       .  S
C770       C1380   1.509       .  S
C771       C1413   1.519       .  S
N782        C787   1.348       .  A
N782        C786   1.347       .  A
N782        H814   1.042       .  S
N783        C790   1.357       .  A
N783        C791   1.356       .  A
N784        C789   1.361       .  A
N784        C788   1.358       .  A
N784        H815   1.038       .  S
N785        C792   1.354       .  A
N785        C793   1.351       .  A
C786        C794   1.388       .  A
C786        C802   1.407       .  A
C787        C803   1.404       .  A
C787        C795   1.386       .  A
C788        C796   1.388       .  A
C788        C805   1.431       .  A
C789        C804   1.431       .  A
C789        C797   1.388       .  A
C790        C802   1.418       .  A
C790        C798   1.380       .  A
C791        C805   1.431       .  A
C791        C799   1.394       .  A
C792        C800   1.376       .  A
C792        C803   1.407       .  A
C793        C801   1.397       .  A
C793        C804   1.430       .  A
C794        C795   1.374       .  A
C794        H806   1.082       .  S
C795        H807   1.082       .  S
C796        C797   1.384       .  A
C796        H808   1.081       .  S
C797        H809   1.081       .  S
C798        C799   1.367       .  A
C798        H810   1.082       .  S
C799        H811   1.077       .  S
C800        C801   1.371       .  A
C800        H812   1.082       .  S
C801        H813   1.078       .  S
C802       C1349   1.499       .  S
C803        C907   1.497       .  S
C804       C1436   1.511       .  S
C805       C1403   1.501       .  S
N816        C821   1.345       .  A
N816        C820   1.347       .  A
N816        H848   1.043       .  S
N817        C824   1.353       .  A
N817        C825   1.351       .  A
N818        C823   1.359       .  A
N818        C822   1.365       .  A
N818        H849   1.039       .  S
N819        C826   1.357       .  A
N819        C827   1.355       .  A
C820        C828   1.386       .  A
C820        C836   1.402       .  A
C821        C837   1.401       .  A
C821        C829   1.387       .  A
C822        C830   1.389       .  A
C822        C839   1.437       .  A
C823        C838   1.433       .  A
C823        C831   1.388       .  A
C824        C836   1.408       .  A
C824        C832   1.377       .  A
C825        C839   1.430       .  A
C825        C833   1.396       .  A
C826        C834   1.380       .  A
C826        C837   1.417       .  A
C827        C835   1.395       .  A
C827        C838   1.432       .  A
C828        C829   1.373       .  A
C828        H840   1.082       .  S
C829        H841   1.082       .  S
C830        C831   1.386       .  A
C830        H842   1.080       .  S
C831        H843   1.081       .  S
C832        C833   1.374       .  A
C832        H844   1.082       .  S
C833        H845   1.078       .  S
C834        C835   1.370       .  A
C834        H846   1.082       .  S
C835        H847   1.078       .  S
C836        C906   1.495       .  S
C837       C1245   1.497       .  S
C838       C1470   1.504       .  S
C839       C1435   1.521       .  S
N850        C855   1.347       .  A
N850        C854   1.348       .  A
N850        H882   1.042       .  S
N851        C858   1.355       .  A
N851        C859   1.353       .  A
N852        C857   1.360       .  A
N852        C856   1.363       .  A
N852        H883   1.037       .  S
N853        C860   1.356       .  A
N853        C861   1.353       .  A
C854        C862   1.386       .  A
C854        C870   1.402       .  A
C855        C871   1.404       .  A
C855        C863   1.387       .  A
C856        C864   1.389       .  A
C856        C873   1.436       .  A
C857        C872   1.431       .  A
C857        C865   1.387       .  A
C858        C870   1.409       .  A
C858        C866   1.375       .  A
C859        C873   1.434       .  A
C859        C867   1.399       .  A
C860        C868   1.380       .  A
C860        C871   1.414       .  A
C861        C869   1.395       .  A
C861        C872   1.429       .  A
C862        C863   1.372       .  A
C862        H874   1.082       .  S
C863        H875   1.082       .  S
C864        C865   1.383       .  A
C864        H876   1.081       .  S
C865        H877   1.081       .  S
C866        C867   1.370       .  A
C866        H878   1.083       .  S
C867        H879   1.076       .  S
C868        C869   1.367       .  A
C868        H880   1.082       .  S
C869        H881   1.078       .  S
C870        C905   1.496       .  S
C871       C1246   1.497       .  S
C872       C1493   1.500       .  S
C873       C1414   1.514       .  S
N884        C889   1.353   1_565  A
N884        C888   1.353       .  A
N884        H916   1.041   1_565  S
N885        C892   1.353       .  A
N885        C893   1.352       .  A
N886        C891   1.353       .  A
N886        C890   1.354   1_545  A
N887        C894   1.353       .  A
N887        C895   1.353       .  A
C888        C896   1.387       .  A
C888        C904   1.412       .  A
C889        C905   1.411       .  A
C889        C897   1.387       .  A
C890        C898   1.387       .  A
C890        C907   1.414       .  A
C891        C906   1.413       .  A
C891        C899   1.388       .  A
C892        C904   1.416       .  A
C892        C900   1.386       .  A
C893        C901   1.386       .  A
C894        C902   1.386       .  A
C894        C905   1.415       .  A
C895        C903   1.386       .  A
C896        C897   1.368   1_565  A
C896        H908   1.082       .  S
C897        H909   1.082       .  S
C898        C899   1.368   1_565  A
C898        H910   1.082       .  S
C899        H911   1.082       .  S
C900        C901   1.375       .  A
C900        H912   1.082       .  S
C901        H913   1.082       .  S
C902        C903   1.375       .  A
C902        H914   1.082       .  S
C903        H915   1.082       .  S
N918        C923   1.347       .  A
N918        C922   1.346       .  A
N918        H950   1.039       .  S
N919        C926   1.354       .  A
N919        C927   1.354       .  A
N920        C925   1.359       .  A
N920        C924   1.365       .  A
N920        H951   1.035       .  S
N921        C928   1.359       .  A
N921        C929   1.355       .  A
C922        C930   1.387       .  A
C922        C938   1.403       .  A
C923        C939   1.404       .  A
C923        C931   1.388       .  A
C924        C932   1.389       .  A
C924        C941   1.437       .  A
C925        C940   1.434       .  A
C925        C933   1.389       .  A
C926        C938   1.409       .  A
C926        C934   1.376       .  A
C927        C941   1.431       .  A
C927        C935   1.396       .  A
C928        C936   1.379       .  A
C928        C939   1.417       .  A
C929        C937   1.396       .  A
C929        C940   1.433       .  A
C930        C931   1.372       .  A
C930        H942   1.082       .  S
C931        H943   1.083       .  S
C932        C933   1.385       .  A
C932        H944   1.081       .  S
C933        H945   1.081       .  S
C934        C935   1.370       .  A
C934        H946   1.083       .  S
C935        H947   1.077       .  S
C936        C937   1.367       .  A
C936        H948   1.082       .  S
C937        H949   1.077       .  S
C938       C1313   1.492       .  S
C939       C1348   1.501       .  S
C940       C1404   1.502       .  S
C941       C1458   1.521       .  S
N952        C957   1.347       .  A
N952        C956   1.346       .  A
N952        H984   1.042       .  S
N953        C960   1.358       .  A
N953        C961   1.354       .  A
N954        C959   1.364       .  A
N954        C958   1.358       .  A
N954        H985   1.039       .  S
N955        C962   1.353       .  A
N955        C963   1.352       .  A
C956        C964   1.387       .  A
C956        C972   1.403       .  A
C957        C973   1.402       .  A
C957        C965   1.387       .  A
C958        C966   1.388       .  A
C958        C975   1.432       .  A
C959        C974   1.436       .  A
C959        C967   1.389       .  A
C960        C972   1.418       .  A
C960        C968   1.380       .  A
C961        C975   1.431       .  A
C961        C969   1.395       .  A
C962        C970   1.377       .  A
C962        C973   1.407       .  A
C963        C971   1.396       .  A
C963        C974   1.429       .  A
C964        C965   1.373       .  A
C964        H976   1.082       .  S
C965        H977   1.082       .  S
C966        C967   1.385       .  A
C966        H978   1.081       .  S
C967        H979   1.080       .  S
C968        C969   1.368       .  A
C968        H980   1.082       .  S
C969        H981   1.078       .  S
C970        C971   1.373       .  A
C970        H982   1.083       .  S
C971        H983   1.078       .  S
C972       C1347   1.499       .  S
C973       C1314   1.492       .  S
C974       C1481   1.519       .  S
C975       C1379   1.501       .  S
N986        C991   1.345       .  A
N986        C990   1.347       .  A
N986       H1018   1.042       .  S
N987        C994   1.355       .  A
N987        C995   1.351       .  A
N988        C993   1.361       .  A
N988        C992   1.363       .  A
N988       H1019   1.039       .  S
N989        C996   1.356       .  A
N989        C997   1.356       .  A
C990        C998   1.386       .  A
C990       C1006   1.402       .  A
C991       C1007   1.404       .  A
C991        C999   1.388       .  A
C992       C1000   1.389       .  A
C992       C1009   1.436       .  A
C993       C1008   1.434       .  A
C993       C1001   1.388       .  A
C994       C1006   1.407       .  A
C994       C1002   1.376       .  A
C995       C1009   1.430       .  A
C995       C1003   1.397       .  A
C996       C1004   1.379       .  A
C996       C1007   1.416       .  A
C997       C1005   1.395       .  A
C997       C1008   1.432       .  A
C998        C999   1.374       .  A
C998       H1010   1.082       .  S
C999       H1011   1.082       .  S
C1000      C1001   1.386       .  A
C1000      H1012   1.081       .  S
C1001      H1013   1.081       .  S
C1002      C1003   1.372       .  A
C1002      H1014   1.083       .  S
C1003      H1015   1.078       .  S
C1004      C1005   1.368       .  A
C1004      H1016   1.082       .  S
C1005      H1017   1.077       .  S
C1006      C1315   1.495       .  S
C1007      C1278   1.495       .  S
C1008      C1425   1.508       .  S
C1009      C1480   1.515       .  S
N1020      C1025   1.348       .  A
N1020      C1024   1.347       .  A
N1020      H1052   1.042       .  S
N1021      C1028   1.358       .  A
N1021      C1029   1.356       .  A
N1022      C1027   1.363       .  A
N1022      C1026   1.360       .  A
N1022      H1053   1.037       .  S
N1023      C1030   1.355       .  A
N1023      C1031   1.353       .  A
C1024      C1032   1.388       .  A
C1024      C1040   1.406       .  A
C1025      C1041   1.403       .  A
C1025      C1033   1.386       .  A
C1026      C1034   1.388       .  A
C1026      C1043   1.434       .  A
C1027      C1042   1.435       .  A
C1027      C1035   1.389       .  A
C1028      C1040   1.419       .  A
C1028      C1036   1.381       .  A
C1029      C1043   1.432       .  A
C1029      C1037   1.394       .  A
C1030      C1038   1.376       .  A
C1030      C1041   1.409       .  A
C1031      C1039   1.397       .  A
C1031      C1042   1.433       .  A
C1032      C1033   1.372       .  A
C1034      C1035   1.385       .  A
C1034      H1046   1.081       .  S
C1035      H1047   1.081       .  S
C1036      C1037   1.368       .  A
C1036      H1048   1.082       .  S
C1037      H1049   1.078       .  S
C1038      C1039   1.372       .  A
C1038      H1050   1.083       .  S
C1039      H1051   1.077       .  S
C1040      C1281   1.500       .  S
C1041      C1312   1.497       .  S
C1042      C1459   1.516       .  S
C1043      C1448   1.507       .  S
N1054      C1059   1.348       .  A
N1054      C1058   1.347       .  A
N1054      H1086   1.043       .  S
N1055      C1062   1.357       .  A
N1055      C1063   1.355       .  A
N1056      C1061   1.361       .  A
N1056      C1060   1.358       .  A
N1056      H1087   1.042       .  S
N1057      C1064   1.354       .  A
N1057      C1065   1.352       .  A
C1058      C1066   1.388       .  A
C1058      C1074   1.406       .  A
C1059      C1075   1.405       .  A
C1059      C1067   1.386       .  A
C1060      C1068   1.388       .  A
C1060      C1077   1.430       .  A
C1061      C1076   1.433       .  A
C1061      C1069   1.389       .  A
C1062      C1074   1.417       .  A
C1062      C1070   1.380       .  A
C1063      C1077   1.432       .  A
C1063      C1071   1.395       .  A
C1064      C1072   1.377       .  A
C1064      C1075   1.408       .  A
C1065      C1073   1.396       .  A
C1065      C1076   1.429       .  A
C1066      C1067   1.375       .  A
C1066      H1078   1.082       .  S
C1067      H1079   1.082       .  S
C1068      C1069   1.384       .  A
C1068      H1080   1.081       .  S
C1069      H1081   1.080       .  S
C1070      C1071   1.369       .  A
C1070      H1082   1.082       .  S
C1071      H1083   1.077       .  S
C1072      C1073   1.373       .  A
C1072      H1084   1.082       .  S
C1073      H1085   1.079       .  S
C1074      C1279   1.500       .  S
C1075      C1142   1.496       .  S
C1076      C1369   1.513       .  S
C1077      C1424   1.502       .  S
N1088      C1093   1.346       .  A
N1088      C1092   1.345       .  A
N1088      H1120   1.040       .  S
N1089      C1096   1.357       .  A
N1089      C1097   1.355       .  A
N1090      C1095   1.363       .  A
N1090      C1094   1.360       .  A
N1090      H1121   1.034       .  S
N1091      C1098   1.355       .  A
N1091      C1099   1.352       .  A
C1092      C1100   1.389       .  A
C1092      C1108   1.403       .  A
C1093      C1109   1.400       .  A
C1093      C1101   1.386       .  A
C1094      C1102   1.388       .  A
C1094      C1111   1.433       .  A
C1095      C1110   1.435       .  A
C1095      C1103   1.389       .  A
C1096      C1108   1.416       .  A
C1096      C1104   1.380       .  A
C1097      C1111   1.431       .  A
C1097      C1105   1.395       .  A
C1098      C1106   1.376       .  A
C1098      C1109   1.407       .  A
C1099      C1107   1.396       .  A
C1099      C1110   1.430       .  A
C1100      C1101   1.373       .  A
C1102      C1103   1.385       .  A
C1102      H1114   1.081       .  S
C1103      H1115   1.080       .  S
C1104      C1105   1.368       .  A
C1104      H1116   1.082       .  S
C1105      H1117   1.077       .  S
C1106      C1107   1.373       .  A
C1106      H1118   1.083       .  S
C1107      H1119   1.078       .  S
C1108      C1280   1.495       .  S
C1109      C1145   1.492       .  S
C1110      C1390   1.517       .  S
C1111      C1449   1.506       .  S
N1122      C1127   1.353       .  A
N1122      C1126   1.354       .  A
N1122      H1154   1.042       .  S
N1123      C1130   1.352       .  A
N1123      C1131   1.352       .  A
N1124      C1129   1.352       .  A
N1124      C1128   1.351       .  A
N1125      C1132   1.350       .  A
N1125      C1133   1.351       .  A
C1126      C1134   1.386       .  A
C1126      C1142   1.412       .  A
C1127      C1143   1.413       .  A
C1127      C1135   1.388       .  A
C1128      C1136   1.388       .  A
C1128      C1145   1.410       .  A
C1129      C1144   1.410       .  A
C1129      C1137   1.387       .  A
C1130      C1142   1.414       .  A
C1130      C1138   1.386       .  A
C1131      C1139   1.386       .  A
C1132      C1140   1.387       .  A
C1132      C1143   1.413       .  A
C1133      C1141   1.386       .  A
C1134      C1135   1.368       .  A
C1134      H1146   1.082       .  S
C1135      H1147   1.082       .  S
C1136      C1137   1.369       .  A
C1136      H1148   1.082       .  S
C1137      H1149   1.082       .  S
C1138      C1139   1.376       .  A
C1138      H1150   1.082       .  S
C1139      H1151   1.082       .  S
C1140      C1141   1.376       .  A
C1140      H1152   1.082       .  S
C1141      H1153   1.082       .  S
C1143      C1210   1.495       .  S
C1144      C1177   1.494       .  S
N1156      C1161   1.348       .  A
N1156      C1160   1.346       .  A
N1156      H1188   1.043       .  S
N1157      C1164   1.357       .  A
N1157      C1165   1.354       .  A
N1158      C1163   1.362       .  A
N1158      C1162   1.360       .  A
N1158      H1189   1.039       .  S
N1159      C1166   1.355       .  A
N1159      C1167   1.352       .  A
C1160      C1168   1.388       .  A
C1160      C1176   1.404       .  A
C1161      C1177   1.401       .  A
C1161      C1169   1.385       .  A
C1162      C1170   1.387       .  A
C1162      C1179   1.432       .  A
C1163      C1178   1.435       .  A
C1163      C1171   1.389       .  A
C1164      C1176   1.417       .  A
C1164      C1172   1.382       .  A
C1165      C1179   1.430       .  A
C1165      C1173   1.394       .  A
C1166      C1174   1.375       .  A
C1166      C1177   1.406       .  A
C1167      C1175   1.399       .  A
C1167      C1178   1.434       .  A
C1168      C1169   1.371       .  A
C1168      H1180   1.082       .  S
C1169      H1181   1.082       .  S
C1170      C1171   1.383       .  A
C1170      H1182   1.081       .  S
C1171      H1183   1.080       .  S
C1172      C1173   1.368       .  A
C1172      H1184   1.082       .  S
C1173      H1185   1.079       .  S
C1174      C1175   1.369       .  A
C1174      H1186   1.083       .  S
C1175      H1187   1.076       .  S
C1176      C1244   1.495       .  S
C1178      C1391   1.513       .  S
C1179      C1469   1.503       .  S
N1190      C1195   1.348       .  A
N1190      C1194   1.348       .  A
N1190      H1222   1.041       .  S
N1191      C1198   1.355       .  A
N1191      C1199   1.353       .  A
N1192      C1197   1.359       .  A
N1192      C1196   1.363       .  A
N1192      H1223   1.039       .  S
N1193      C1200   1.357       .  A
N1193      C1201   1.355       .  A
C1194      C1202   1.387       .  A
C1194      C1210   1.405       .  A
C1195      C1211   1.406       .  A
C1195      C1203   1.388       .  A
C1196      C1204   1.389       .  A
C1196      C1213   1.435       .  A
C1197      C1212   1.431       .  A
C1197      C1205   1.387       .  A
C1198      C1210   1.409       .  A
C1198      C1206   1.376       .  A
C1199      C1213   1.434       .  A
C1199      C1207   1.398       .  A
C1200      C1208   1.380       .  A
C1200      C1211   1.416       .  A
C1201      C1209   1.394       .  A
C1201      C1212   1.430       .  A
C1202      C1203   1.372       .  A
C1202      H1214   1.082       .  S
C1203      H1215   1.082       .  S
C1204      C1205   1.384       .  A
C1204      H1216   1.080       .  S
C1205      H1217   1.081       .  S
C1206      C1207   1.370       .  A
C1206      H1218   1.083       .  S
C1207      H1219   1.077       .  S
C1208      C1209   1.366       .  A
C1208      H1220   1.082       .  S
C1209      H1221   1.077       .  S
C1211      C1247   1.499       .  S
C1212      C1494   1.504       .  S
C1213      C1368   1.516       .  S
N1224      C1229   1.347   1_455  A
N1224      C1228   1.346       .  A
N1225      C1232   1.348       .  A
N1225      C1233   1.348       .  A
N1226      C1231   1.348   1_455  A
N1226      C1230   1.349       .  A
N1226      H1257   1.043       .  S
N1227      C1234   1.350       .  A
N1227      C1235   1.349       .  A
C1228      C1236   1.387       .  A
C1228      C1244   1.406       .  A
C1229      C1245   1.405       .  A
C1229      C1237   1.386       .  A
C1230      C1238   1.387       .  A
C1230      C1247   1.411       .  A
C1231      C1246   1.410       .  A
C1231      C1239   1.387       .  A
C1232      C1240   1.387       .  A
C1233      C1247   1.414       .  A
C1233      C1241   1.387       .  A
C1234      C1242   1.386       .  A
C1235      C1243   1.388       .  A
C1235      C1246   1.416       .  A
C1236      C1237   1.377   1_455  A
C1236      H1248   1.082       .  S
C1237      H1249   1.082       .  S
C1238      C1239   1.380   1_455  A
C1238      H1250   1.082       .  S
C1239      H1251   1.082       .  S
C1240      C1241   1.380       .  A
C1240      H1252   1.082       .  S
C1241      H1253   1.082       .  S
C1242      C1243   1.380       .  A
C1242      H1254   1.082       .  S
C1243      H1255   1.082       .  S
N1258      C1263   1.350       .  A
N1258      C1262   1.348   1_545  A
N1258      H1290   1.042       .  S
N1259      C1266   1.349       .  A
N1259      C1267   1.351       .  A
N1260      C1265   1.347   1_565  A
N1260      C1264   1.348       .  A
N1261      C1268   1.350       .  A
N1261      C1269   1.349       .  A
C1262      C1270   1.388       .  A
C1262      C1278   1.410       .  A
C1263      C1279   1.410       .  A
C1263      C1271   1.387       .  A
C1264      C1272   1.387       .  A
C1264      C1281   1.408       .  A
C1265      C1280   1.407       .  A
C1265      C1273   1.387       .  A
C1266      C1278   1.416       .  A
C1266      C1274   1.387       .  A
C1267      C1275   1.386       .  A
C1268      C1276   1.386       .  A
C1268      C1279   1.415       .  A
C1269      C1277   1.387       .  A
C1270      C1271   1.378   1_565  A
C1270      H1282   1.082       .  S
C1271      H1283   1.082       .  S
C1272      C1273   1.377   1_565  A
C1272      H1284   1.082       .  S
C1273      H1285   1.082       .  S
C1274      C1275   1.379       .  A
C1274      H1286   1.082       .  S
C1275      H1287   1.082       .  S
C1276      C1277   1.378       .  A
C1276      H1288   1.082       .  S
C1277      H1289   1.082       .  S
N1292      C1297   1.351       .  A
N1292      C1296   1.353   1_655  A
N1293      C1300   1.353       .  A
N1293      C1301   1.353       .  A
N1294      C1299   1.352       .  A
N1294      C1298   1.353   1_655  A
N1294      H1325   1.041       .  S
N1295      C1302   1.352       .  A
N1295      C1303   1.352       .  A
C1296      C1304   1.387       .  A
C1296      C1312   1.411       .  A
C1297      C1313   1.411       .  A
C1297      C1305   1.388       .  A
C1298      C1306   1.387       .  A
C1298      C1315   1.411       .  A
C1299      C1314   1.412       .  A
C1299      C1307   1.388       .  A
C1300      C1308   1.385       .  A
C1301      C1315   1.415       .  A
C1301      C1309   1.385       .  A
C1302      C1310   1.386       .  A
C1303      C1311   1.386       .  A
C1303      C1314   1.414       .  A
C1304      C1305   1.367   1_455  A
C1304      H1316   1.082       .  S
C1305      H1317   1.082       .  S
C1306      C1307   1.369   1_455  A
C1306      H1318   1.082       .  S
C1307      H1319   1.082       .  S
C1308      C1309   1.375       .  A
C1308      H1320   1.082       .  S
C1309      H1321   1.082       .  S
C1310      C1311   1.374       .  A
C1310      H1322   1.082       .  S
C1311      H1323   1.082       .  S
N1326      C1331   1.347       .  A
N1326      C1330   1.347       .  A
N1326      H1358   1.043       .  S
N1327      C1334   1.349       .  A
N1327      C1335   1.349       .  A
N1328      C1333   1.349       .  A
N1328      C1332   1.349       .  A
N1329      C1336   1.351       .  A
N1329      C1337   1.350       .  A
C1330      C1338   1.387       .  A
C1330      C1346   1.407       .  A
C1331      C1347   1.407       .  A
C1331      C1339   1.387       .  A
C1332      C1340   1.387       .  A
C1332      C1349   1.410       .  A
C1333      C1348   1.411       .  A
C1333      C1341   1.387       .  A
C1334      C1346   1.416       .  A
C1334      C1342   1.387       .  A
C1335      C1343   1.387       .  A
C1336      C1344   1.386       .  A
C1336      C1347   1.417       .  A
C1337      C1345   1.387       .  A
C1338      C1339   1.377       .  A
C1338      H1350   1.082       .  S
C1339      H1351   1.082       .  S
C1340      C1341   1.378       .  A
C1340      H1352   1.082       .  S
C1341      H1353   1.082       .  S
C1342      C1343   1.379       .  A
C1342      H1354   1.082       .  S
C1343      H1355   1.082       .  S
C1344      C1345   1.380       .  A
C1344      H1356   1.082       .  S
C1345      H1357   1.082       .  S
N1360      N1361   1.332       .  A
N1360      N1366   1.314       .  A
N1360     Mn1389   2.242       .  S
N1361      C1368   1.367       .  A
N1362      N1364   1.314       .  A
N1362      N1363   1.314       .  A
N1362     Mn1378   2.206       .  S
N1363      C1369   1.350       .  A
N1364      N1365   1.331       .  A
N1364     Mn1389   2.236       .  S
N1365      C1369   1.365       .  A
N1366      N1367   1.313       .  A
N1366     Mn1378   2.199       .  S
N1367      C1368   1.347       .  A
N1370      N1376   1.314       .  A
N1370      N1371   1.327       .  A
N1370     Mn1400   2.218       .  S
N1371      C1379   1.360       .  A
N1372      N1373   1.319       .  A
N1372      N1374   1.314       .  A
N1372     Mn1378   2.222       .  S
N1373      C1380   1.355       .  A
N1374      N1375   1.329       .  A
N1374     Mn1400   2.226       .  S
N1375      C1380   1.362       .  A
N1376      N1377   1.318       .  A
N1376     Mn1378   2.214       .  S
N1377      C1379   1.354       .  A
Mn1378    Cl1402   2.466       .  S
N1381      N1382   1.332       .  A
N1381      N1387   1.314       .  A
N1381     Mn1389   2.243       .  S
N1382      C1390   1.366       .  A
N1383      N1385   1.314       .  A
N1383      N1384   1.313       .  A
N1383     Mn1401   2.200       .  S
N1384      C1391   1.348       .  A
N1385      N1386   1.331       .  A
N1385     Mn1389   2.236       .  S
N1386      C1391   1.366       .  A
N1387      N1388   1.315       .  A
N1387     Mn1401   2.206       .  S
N1388      C1390   1.350       .  A
Mn1389    Cl1402   2.634       .  S
N1392      N1393   1.327       .  A
N1392      N1398   1.314       .  A
N1392     Mn1400   2.215       .  S
N1393      C1403   1.359       .  A
N1394      N1395   1.318       .  A
N1394      N1396   1.315       .  A
N1394     Mn1401   2.215       .  S
N1395      C1404   1.354       .  A
N1396      N1397   1.327       .  A
N1396     Mn1400   2.221       .  S
N1397      C1404   1.360       .  A
N1398      N1399   1.318       .  A
N1398     Mn1401   2.215       .  S
N1399      C1403   1.354       .  A
Mn1400    Cl1402   2.629       .  S
Mn1401    Cl1402   2.466       .  S
N1405      N1406   1.332       .  A
N1405      N1411   1.314       .  A
N1405     Mn1434   2.243   1_565  S
N1406      C1413   1.367       .  A
N1407      N1409   1.314       .  A
N1407      N1408   1.314       .  A
N1407     Mn1423   2.206       .  S
N1408      C1414   1.349       .  A
N1409      N1410   1.331       .  A
N1409     Mn1434   2.236       .  S
N1410      C1414   1.366       .  A
N1411      N1412   1.315       .  A
N1411     Mn1423   2.206   1_565  S
N1412      C1413   1.349       .  A
N1415      N1421   1.314       .  A
N1415      N1416   1.328       .  A
N1415     Mn1445   2.223       .  S
N1416      C1424   1.361       .  A
N1417      N1418   1.319       .  A
N1417      N1419   1.315       .  A
N1417     Mn1423   2.220   1_565  S
N1418      C1425   1.354       .  A
N1419      N1420   1.329       .  A
N1419     Mn1445   2.229   1_565  S
N1420      C1425   1.361       .  A
N1421      N1422   1.318       .  A
N1421     Mn1423   2.210       .  S
N1422      C1424   1.352       .  A
Mn1423    Cl1447   2.469       .  S
N1426      N1427   1.333       .  A
N1426      N1432   1.315       .  A
N1426     Mn1434   2.245       .  S
N1427      C1435   1.366       .  A
N1428      N1430   1.314       .  A
N1428      N1429   1.312       .  A
N1428     Mn1446   2.199   1_565  S
N1429      C1436   1.348       .  A
N1430      N1431   1.332       .  A
N1430     Mn1434   2.238   1_565  S
N1431      C1436   1.366       .  A
N1432      N1433   1.316       .  A
N1432     Mn1446   2.214       .  S
N1433      C1435   1.351       .  A
Mn1434    Cl1447   2.636       .  S
N1437      N1438   1.328       .  A
N1437      N1443   1.315       .  A
N1437     Mn1445   2.223   1_565  S
N1438      C1448   1.360       .  A
N1439      N1440   1.319       .  A
N1439      N1441   1.315       .  A
N1439     Mn1446   2.216       .  S
N1440      C1449   1.353       .  A
N1441      N1442   1.328       .  A
N1441     Mn1445   2.230       .  S
N1442      C1449   1.361       .  A
N1443      N1444   1.320       .  A
N1443     Mn1446   2.225   1_565  S
N1444      C1448   1.355       .  A
Mn1445    Cl1447   2.630       .  S
Mn1446    Cl1447   2.471       .  S
N1450      N1451   1.333       .  A
N1450      N1456   1.315       .  A
N1450     Mn1479   2.243   1_655  S
N1451      C1458   1.366       .  A
N1452      N1454   1.314       .  A
N1452      N1453   1.315       .  A
N1452     Mn1468   2.204       .  S
N1453      C1459   1.349       .  A
N1454      N1455   1.332       .  A
N1454     Mn1479   2.244       .  S
N1455      C1459   1.366       .  A
N1456      N1457   1.316       .  A
N1456     Mn1468   2.214   1_655  S
N1457      C1458   1.351       .  A
N1460      N1466   1.315       .  A
N1460      N1461   1.327       .  A
N1460     Mn1490   2.217       .  S
N1461      C1469   1.360       .  A
N1462      N1463   1.318       .  A
N1462      N1464   1.315       .  A
N1462     Mn1468   2.217   1_655  S
N1463      C1470   1.354       .  A
N1464      N1465   1.328       .  A
N1464     Mn1490   2.222   1_655  S
N1465      C1470   1.360       .  A
N1466      N1467   1.319       .  A
N1466     Mn1468   2.221       .  S
N1467      C1469   1.354       .  A
Mn1468    Cl1492   2.473       .  S
N1471      N1472   1.332       .  A
N1471      N1477   1.314       .  A
N1471     Mn1479   2.243       .  S
N1472      C1480   1.366       .  A
N1473      N1475   1.315       .  A
N1473      N1474   1.316       .  A
N1473     Mn1491   2.210   1_655  S
N1474      C1481   1.351       .  A
N1475      N1476   1.332       .  A
N1475     Mn1479   2.246   1_655  S
N1476      C1481   1.366       .  A
N1477      N1478   1.315       .  A
N1477     Mn1491   2.204       .  S
N1478      C1480   1.350       .  A
Mn1479    Cl1492   2.632       .  S
N1482      N1483   1.327       .  A
N1482      N1488   1.315       .  A
N1482     Mn1490   2.216   1_655  S
N1483      C1493   1.359       .  A
N1484      N1485   1.319       .  A
N1484      N1486   1.315       .  A
N1484     Mn1491   2.221       .  S
N1485      C1494   1.355       .  A
N1486      N1487   1.327       .  A
N1486     Mn1490   2.221       .  S
N1487      C1494   1.360       .  A
N1488      N1489   1.318       .  A
N1488     Mn1491   2.217   1_655  S
N1489      C1493   1.354       .  A
Mn1490    Cl1492   2.628       .  S
Mn1491    Cl1492   2.475       .  S
