geometry optimzed in LAMMPS
_audit_creation_date              2020-11-30 
_audit_creation_method            'lammps2cif' 
_symmetry_space_group_name_H-M    'P1' 
_symmetry_Int_Tables_number       1 
_symmetry_cell_setting            triclinic 
loop_ 
_symmetry_equiv_pos_as_xyz 
  x,y,z 
_cell_length_a                    44.4457593 
_cell_length_b                    44.283771849312735 
_cell_length_c                    31.243989486883304 
_cell_angle_alpha                 90.06334162510967 
_cell_angle_beta                  89.95938469488104 
_cell_angle_gamma                 89.9904953647083 
loop_ 
_atom_site_label 
_atom_site_type_symbol 
_atom_site_fract_x 
_atom_site_fract_y 
_atom_site_fract_z 
_atom_site_charge 
C1          C  0.16867170  0.50195344  0.24607250     0.80800
N2          N  0.15280065  0.50236041  0.28337288    -0.77500
C3          C  0.12226103  0.00236411  0.28283390     0.83200
N4          N  0.10740498  0.00191009  0.24495725    -0.77500
C5          C  0.12301167  0.00148130  0.20765736     0.83300
N6          N  0.15353828  0.50152693  0.20822403    -0.79200
C7          C  0.29922682  0.50195849  0.24883918     0.80800
N8          N  0.31541614  0.50132603  0.21182188    -0.77500
C9          C  0.34596774  0.50135151  0.21297419     0.83200
N10         N  0.36047350  0.00206898  0.25108814    -0.77500
C11         C  0.34449794  0.50275865  0.28803206     0.83300
N12         N  0.31402092  0.50266058  0.28690588    -0.79200
C13         C  0.48349026  0.18703116  0.24785960     0.80800
N14         N  0.48380955  0.17128381  0.21049753    -0.77500
C15         C  0.48413562  0.14065313  0.21103044     0.83200
N16         N  0.48354440  0.12569681  0.24886341    -0.77500
C17         C  0.48292019  0.14133467  0.28618804     0.83300
N18         N  0.48319518  0.17195879  0.28572061    -0.79200
C19         C  0.48363973  0.31695714  0.24592478     0.81300
N20         N  0.48390474  0.33205711  0.20808666    -0.77500
C21         C  0.48409803  0.36268147  0.20766299     0.83200
N22         N  0.48341937  0.37829166  0.24500841    -0.77500
C23         C  0.48285627  0.36330733  0.28281982     0.83300
N24         N  0.48326415  0.33267671  0.28330996    -0.79200
N25         N  0.04889610  0.01645641  0.04505459    -0.05600
N26         N  0.06500403  0.02665149  0.07749620    -0.57700
N27         N  0.04784708  0.48751788  0.44577457    -0.05200
N28         N  0.06339641  0.47729923  0.41274525    -0.59800
N29         N  0.04787568  0.01723282  0.44625974    -0.04800
N30         N  0.06345444  0.02788759  0.41355384    -0.57700
N31         N  0.04890931  0.48673947  0.04454638    -0.04500
N32         N  0.06502465  0.47604465  0.07664092    -0.60200
C33         C  0.07490470  0.00120759  0.09668126     0.96600
C34         C  0.07294945  0.00271574  0.39311045     0.96400
N35         N  0.46736597  0.43746995  0.44658864    -0.05700
N36         N  0.45634790  0.42179969  0.41416522    -0.58300
N37         N  0.49927823  0.43630808  0.04386825    -0.03900
N38         N  0.00941197  0.42084203  0.07707236    -0.59500
N39         N  0.46968285  0.43639822  0.04514804    -0.05800
N40         N  0.45986794  0.42044357  0.07794306    -0.58500
N41         N  0.49696343  0.43749867  0.44532335    -0.03500
N42         N  0.00796396  0.42191886  0.41327329    -0.59600
Mn43       Mn  0.02403822  0.46138253  0.49531945     1.18400
C44         C  0.48121825  0.41230407  0.39315484     0.98700
C45         C  0.48539012  0.41051438  0.09655949     0.99400
N46         N  0.49721056  0.06759427  0.44869155    -0.05800
N47         N  0.00784579  0.08313003  0.41582241    -0.62100
N48         N  0.46992420  0.06647825  0.04850254    -0.04600
N49         N  0.46013704  0.08205287  0.08173770    -0.62800
N50         N  0.49952246  0.06649956  0.04724504    -0.05300
N51         N  0.00926783  0.08214986  0.07977302    -0.62400
N52         N  0.46761446  0.06768477  0.44995166    -0.04200
N53         N  0.45663332  0.08377780  0.41798122    -0.63100
Mn54       Mn  0.02403850  0.04261146  0.49674744     1.10700
C55         C  0.48152503  0.09351201  0.39730090     0.99900
C56         C  0.48567178  0.09164085  0.10070220     1.00000
N57         N  0.42001703  0.48662801  0.04935817    -0.05300
N58         N  0.40494153  0.47585500  0.08244613    -0.60700
N59         N  0.41755308  0.01752536  0.45151974    -0.04600
N60         N  0.40129117  0.02835308  0.41970375    -0.57400
N61         N  0.41751824  0.48780520  0.45080527    -0.05900
N62         N  0.40123395  0.47773862  0.41851159    -0.60300
N63         N  0.42009549  0.01635122  0.05008601    -0.04900
N64         N  0.40508370  0.02644551  0.08367552    -0.57400
Mn65       Mn  0.44289078  0.46133350  0.49795076     1.20200
Mn66       Mn  0.44304246  0.04275533  0.50003587     1.10100
Cl67       Cl  0.48344089  0.00199576  0.49690828    -0.85400
C68         C  0.39584009  0.00094994  0.10338479     0.96900
C69         C  0.39125991  0.00326657  0.39969789     0.96700
C70         C  0.48157084  0.37992896  0.32220130    -0.12700
C71         C  0.48080318  0.39447314  0.35480118    -0.14300
C72         C  0.48582206  0.39279497  0.13492276    -0.12700
C73         C  0.48518823  0.37863949  0.16780454    -0.14300
C74         C  0.48178567  0.12540371  0.32606831    -0.12700
C75         C  0.48111499  0.11124957  0.35895134    -0.14300
C76         C  0.48536086  0.12400375  0.17166876    -0.12700
C77         C  0.48609375  0.10945682  0.13906978    -0.14300
C78         C  0.46527444  0.23600131  0.21834927    -0.12800
C79         C  0.48354081  0.22024472  0.24734042     0.09400
C80         C  0.99330611  0.23633726  0.28308159    -0.12800
C81         C  0.99372570  0.26788612  0.28268504    -0.12800
C82         C  0.48363768  0.28374355  0.24639265     0.09400
C83         C  0.46532599  0.26756885  0.21787749    -0.12800
H84         H  0.45073572  0.22389918  0.19646864     0.13300
H85         H  0.00133250  0.22464349  0.31126285     0.13300
H86         H  0.00202834  0.27976199  0.31058042     0.13300
H87         H  0.45081988  0.27935504  0.19563638     0.13300
C88         C  0.35989864  0.00341314  0.32822768    -0.12700
C89         C  0.37368694  0.00362153  0.36134489    -0.14300
C90         C  0.37800026  0.00063244  0.14172723    -0.12700
C91         C  0.36307285  0.00077840  0.17397287    -0.14300
C92         C  0.10555810  0.00276371  0.32225458    -0.12700
C93         C  0.09087900  0.00290523  0.35477441    -0.14300
C94         C  0.10711135  0.00108069  0.16768515    -0.12700
C95         C  0.09283730  0.00097066  0.13488374    -0.14300
C96         C  0.21782050  0.00047172  0.28561813    -0.12800
C97         C  0.20209722  0.50194781  0.24666123     0.09400
C98         C  0.21865427  0.50334714  0.20831082    -0.12800
C99         C  0.25013456  0.50332387  0.20894050    -0.12800
C100        C  0.26582620  0.50191032  0.24793508     0.09400
C101        C  0.24926257  0.00045103  0.28624903    -0.12800
H102        H  0.20586964  0.99925747  0.31576903     0.13300
H103        H  0.20733092  0.50452917  0.17769685     0.13300
H104        H  0.26213293  0.50449907  0.17882703     0.13300
H105        H  0.26054587  0.99922326  0.31688898     0.13300
C106        C  0.16867603  0.50195245  0.74606965     0.80800
N107        N  0.15280559  0.50235468  0.78337078    -0.77500
C108        C  0.12225806  0.00236832  0.78283887     0.83200
N109        N  0.10740233  0.00190406  0.74496228    -0.77500
C110        C  0.12300942  0.00146963  0.70766297     0.83300
N111        N  0.15354200  0.50153581  0.70822144    -0.79200
C112        C  0.29923087  0.50195608  0.74883313     0.80800
N113        N  0.31542019  0.50132192  0.71181592    -0.77500
C114        C  0.34597180  0.50134655  0.71296858     0.83200
N115        N  0.36047114  0.00207224  0.75108958    -0.77500
C116        C  0.34450175  0.50275753  0.78802613     0.83300
N117        N  0.31402481  0.50265960  0.78689974    -0.79200
C118        C  0.48349155  0.18703063  0.74785986     0.80800
N119        N  0.48381217  0.17128277  0.71049800    -0.77500
C120        C  0.48413845  0.14065195  0.71103109     0.83200
N121        N  0.48354616  0.12569589  0.74886446    -0.77500
C122        C  0.48292077  0.14133405  0.78618905     0.83300
N123        N  0.48319542  0.17195825  0.78572099    -0.79200
C124        C  0.48363436  0.31695894  0.74592507     0.81300
N125        N  0.48390381  0.33205840  0.70808645    -0.77500
C126        C  0.48409750  0.36268281  0.70766134     0.83200
N127        N  0.48341502  0.37829385  0.74500615    -0.77500
C128        C  0.48284748  0.36331028  0.78281827     0.83300
N129        N  0.48325488  0.33267953  0.78330952    -0.79200
N130        N  0.04890474  0.01644844  0.54505627    -0.05600
N131        N  0.06501296  0.02663842  0.57750069    -0.57700
N132        N  0.04784643  0.48751762  0.94577109    -0.05200
N133        N  0.06339431  0.47729770  0.91274108    -0.59800
N134        N  0.04786582  0.01723509  0.94625844    -0.04800
N135        N  0.06344290  0.02789152  0.91355212    -0.57700
N136        N  0.04891075  0.48674602  0.54454962    -0.04500
N137        N  0.06502949  0.47605670  0.57664442    -0.60200
C138        C  0.07490761  0.00119147  0.59668364     0.96600
C139        C  0.07294359  0.00272064  0.89311190     0.96400
N140        N  0.46735601  0.43746823  0.94659462    -0.05700
N141        N  0.45633680  0.42179971  0.91417008    -0.58300
N142        N  0.49928652  0.43630658  0.54386322    -0.03900
N143        N  0.00942373  0.42084218  0.57708398    -0.59500
N144        N  0.46969107  0.43639515  0.54514106    -0.05800
N145        N  0.45987591  0.42043943  0.57793489    -0.58500
N146        N  0.49695343  0.43749576  0.94532823    -0.03500
N147        N  0.00795049  0.42192439  0.91326909    -0.59600
Mn148      Mn  0.02403220  0.46138429  0.99531347     1.18400
C149        C  0.48120642  0.41230368  0.89315801     0.98700
C150        C  0.48539787  0.41051113  0.59655287     0.99400
N151        N  0.49720982  0.06759754  0.94869754    -0.05800
N152        N  0.00782358  0.08312355  0.91581548    -0.62100
N153        N  0.46992591  0.06648134  0.54849775    -0.04600
N154        N  0.46013974  0.08205593  0.58173361    -0.62800
N155        N  0.49952418  0.06650124  0.54723973    -0.05300
N156        N  0.00928776  0.08215118  0.57978073    -0.62400
N157        N  0.46761367  0.06768645  0.94995652    -0.04200
N158        N  0.45663232  0.08377927  0.91798591    -0.63100
Mn159      Mn  0.02402391  0.04261139  0.99674286     1.10700
C160        C  0.48152391  0.09351519  0.89730667     0.99900
C161        C  0.48567496  0.09164258  0.60069824     1.00000
N162        N  0.42002323  0.48662232  0.54935394    -0.05300
N163        N  0.40494771  0.47584706  0.58244036    -0.60700
N164        N  0.41755438  0.01752443  0.95151953    -0.04600
N165        N  0.40129129  0.02835284  0.91970518    -0.57400
N166        N  0.41751138  0.48780594  0.95080916    -0.05900
N167        N  0.40122867  0.47773856  0.91851438    -0.60300
N168        N  0.42009480  0.01635686  0.55008669    -0.04900
N169        N  0.40508327  0.02645329  0.58367527    -0.57400
Mn170      Mn  0.44288279  0.46133536  0.99795641     1.20200
Mn171      Mn  0.44304230  0.04275328  0.00003816     1.10100
Cl172      Cl  0.48344262  0.00199582  0.99690830    -0.85400
C173        C  0.39583850  0.00095894  0.60338676     0.96900
C174        C  0.39126090  0.00326674  0.89969740     0.96700
C175        C  0.48155909  0.37993260  0.82219971    -0.12700
C176        C  0.48079038  0.39447539  0.85480121    -0.14300
C177        C  0.48582894  0.39279342  0.63491820    -0.12700
C178        C  0.48519227  0.37863976  0.66780175    -0.14300
C179        C  0.48178512  0.12540362  0.82607025    -0.12700
C180        C  0.48111380  0.11125107  0.85895499    -0.14300
C181        C  0.48536450  0.12400238  0.67166885    -0.12700
C182        C  0.48609771  0.10945665  0.63906834    -0.14300
C183        C  0.46528849  0.23600079  0.71833029    -0.12800
C184        C  0.48354064  0.22024489  0.74734056     0.09400
C185        C  0.99335924  0.23633567  0.78305337    -0.12800
C186        C  0.99377900  0.26788459  0.78265680    -0.12800
C187        C  0.48363333  0.28374472  0.74639399     0.09400
C188        C  0.46533793  0.26756847  0.71785917    -0.12800
H189        H  0.45076206  0.22389805  0.69643384     0.13300
H190        H  0.00144408  0.22463928  0.81119851     0.13300
H191        H  0.00214029  0.27976078  0.81051659     0.13300
H192        H  0.45084267  0.27935350  0.69560257     0.13300
C193        C  0.35989732  0.00341393  0.82822921    -0.12700
C194        C  0.37368657  0.00362240  0.86134562    -0.14300
C195        C  0.37799780  0.00064321  0.64172867    -0.12700
C196        C  0.36306987  0.00078709  0.67397401    -0.14300
C197        C  0.10555467  0.00277072  0.82225882    -0.12700
C198        C  0.09087445  0.00291199  0.85477746    -0.14300
C199        C  0.10710991  0.00106110  0.66769072    -0.12700
C200        C  0.09283764  0.00094954  0.63488804    -0.14300
C201        C  0.21781819  0.00050991  0.78562604    -0.12800
C202        C  0.20210156  0.50194327  0.74665725     0.09400
C203        C  0.21865812  0.50337111  0.70830842    -0.12800
C204        C  0.25013843  0.50334815  0.70893736    -0.12800
C205        C  0.26583044  0.50190631  0.74792933     0.09400
C206        C  0.24926026  0.00048786  0.78625603    -0.12800
H207        H  0.20586769  0.99932236  0.81577928     0.13300
H208        H  0.20733430  0.50457694  0.67769680     0.13300
H209        H  0.26213665  0.50454735  0.67882553     0.13300
H210        H  0.26054373  0.99928611  0.81689812     0.13300
C211        C  0.16867423  0.00195780  0.24606791     0.80800
N212        N  0.15280359  0.00235873  0.28336880    -0.77500
C213        C  0.12225812  0.50236773  0.28283721     0.83200
N214        N  0.10740244  0.50191044  0.24496047    -0.77500
C215        C  0.12300961  0.50147599  0.20766124     0.83300
N216        N  0.15354046  0.00153498  0.20821952    -0.79200
C217        C  0.29922890  0.00195407  0.24883249     0.80800
N218        N  0.31541761  0.00131884  0.21181480    -0.77500
C219        C  0.34596919  0.00133834  0.21296660     0.83200
N220        N  0.36047148  0.50208363  0.25109618    -0.77500
C221        C  0.34450045  0.00274758  0.28802428     0.83300
N222        N  0.31402342  0.00265420  0.28689883    -0.79200
C223        C  0.48349459  0.68702802  0.24786150     0.80800
N224        N  0.48381738  0.67127888  0.21050029    -0.77500
C225        C  0.48414399  0.64064788  0.21103450     0.83200
N226        N  0.48355039  0.62569267  0.24886852    -0.77500
C227        C  0.48292304  0.64133136  0.28619260     0.83300
N228        N  0.48319670  0.67195579  0.28572329    -0.79200
C229        C  0.48363105  0.81696114  0.24592293     0.81300
N230        N  0.48390220  0.83206121  0.20808431    -0.77500
C231        C  0.48409482  0.86268588  0.20765924     0.83200
N232        N  0.48341038  0.87829668  0.24500421    -0.77500
C233        C  0.48284154  0.86331317  0.28281637     0.83300
N234        N  0.48324934  0.83268224  0.28330740    -0.79200
N235        N  0.04890354  0.51645327  0.04505525    -0.05600
N236        N  0.06501178  0.52664489  0.07749837    -0.57700
N237        N  0.04784720  0.98751455  0.44577077    -0.05200
N238        N  0.06339448  0.97729497  0.41274001    -0.59800
N239        N  0.04786890  0.51723614  0.44625899    -0.04800
N240        N  0.06344507  0.52789197  0.41355134    -0.57700
N241        N  0.04890720  0.98674254  0.04454743    -0.04500
N242        N  0.06502573  0.97605131  0.07664100    -0.60200
C243        C  0.07490715  0.50119898  0.09668284     0.96600
C244        C  0.07294550  0.50272067  0.39311184     0.96400
N245        N  0.46735612  0.93747545  0.44659195    -0.05700
N246        N  0.45633595  0.92180729  0.41416771    -0.58300
N247        N  0.49928333  0.93631425  0.04386212    -0.03900
N248        N  0.00941973  0.92083958  0.07708250    -0.59500
N249        N  0.46968796  0.93640313  0.04514097    -0.05800
N250        N  0.45987324  0.92044797  0.07793577    -0.58500
N251        N  0.49695345  0.93750256  0.44532457    -0.03500
N252        N  0.00795131  0.92192223  0.41326816    -0.59600
Mn253      Mn  0.02403287  0.96138084  0.49531289     1.18400
C254        C  0.48120485  0.91231084  0.39315430     0.98700
C255        C  0.48539542  0.91051961  0.09655343     0.99400
N256        N  0.49721272  0.56759012  0.44869904    -0.05800
N257        N  0.00782803  0.58312456  0.41581732    -0.62100
N258        N  0.46992573  0.56647366  0.04850272    -0.04600
N259        N  0.46014046  0.58204765  0.08173989    -0.62800
N260        N  0.49952389  0.56649333  0.04724367    -0.05300
N261        N  0.00928679  0.58215401  0.07978145    -0.62400
N262        N  0.46761667  0.56767918  0.44995889    -0.04200
N263        N  0.45663488  0.58377203  0.41798846    -0.63100
Mn264      Mn  0.02402707  0.54261309  0.49674331     1.10700
C265        C  0.48152614  0.59350794  0.39730820     0.99900
C266        C  0.48567625  0.59163364  0.10070415     1.00000
N267        N  0.42002029  0.98662955  0.04935110    -0.05300
N268        N  0.40494521  0.97585309  0.08243682    -0.60700
N269        N  0.41755739  0.51751800  0.45152366    -0.04600
N270        N  0.40129285  0.52834802  0.41971214    -0.57400
N271        N  0.41751304  0.98781255  0.45080628    -0.05900
N272        N  0.40123092  0.97774355  0.41851212    -0.60300
N273        N  0.42009479  0.51634973  0.05009004    -0.04900
N274        N  0.40508462  0.52644743  0.08367890    -0.57400
Mn275      Mn  0.44288414  0.96134293  0.49795395     1.20200
Mn276      Mn  0.44304624  0.54274598  0.50004173     1.10100
Cl277      Cl  0.48344600  0.50198811  0.49691056    -0.85400
C278        C  0.39583909  0.50095409  0.10339169     0.96900
C279        C  0.39126084  0.50326321  0.39970320     0.96700
C280        C  0.48155396  0.87993619  0.32219801    -0.12700
C281        C  0.48078722  0.89448078  0.35479845    -0.14300
C282        C  0.48582697  0.89279972  0.13491756    -0.12700
C283        C  0.48519039  0.87864383  0.16779967    -0.14300
C284        C  0.48178671  0.62540066  0.32607438    -0.12700
C285        C  0.48111552  0.61124608  0.35895783    -0.14300
C286        C  0.48536929  0.62399683  0.17167278    -0.12700
C287        C  0.48610049  0.60944915  0.13907351    -0.14300
C288        C  0.46531819  0.73599872  0.21829342    -0.12800
C289        C  0.48354237  0.72024365  0.24734072     0.09400
C290        C  0.99339382  0.73633596  0.28303532    -0.12800
C291        C  0.99381238  0.76788489  0.28263789    -0.12800
C292        C  0.48363194  0.78374552  0.24639207     0.09400
C293        C  0.46536613  0.76756672  0.21782114    -0.12800
H294        H  0.45081390  0.72389516  0.19636813     0.13300
H295        H  0.00150495  0.72463926  0.31116496     0.13300
H296        H  0.00219906  0.77976185  0.31048146     0.13300
H297        H  0.45089196  0.77934986  0.19553485     0.13300
C298        C  0.35989577  0.50341969  0.32823609    -0.12700
C299        C  0.37368518  0.50362227  0.36135255    -0.14300
C300        C  0.37799951  0.50064136  0.14173488    -0.12700
C301        C  0.36307200  0.50079102  0.17398065    -0.14300
C302        C  0.10555481  0.50276974  0.32225718    -0.12700
C303        C  0.09087522  0.50291123  0.35477634    -0.14300
C304        C  0.10711014  0.50107133  0.16768903    -0.12700
C305        C  0.09283757  0.50095934  0.13488671    -0.14300
C306        C  0.21781779  0.50052074  0.28562750    -0.12800
C307        C  0.20209971  0.00195386  0.24665628     0.09400
C308        C  0.21865645  0.00340827  0.20830978    -0.12800
C309        C  0.25013677  0.00338252  0.20893902    -0.12800
C310        C  0.26582851  0.00191153  0.24792899     0.09400
C311        C  0.24925983  0.50050235  0.28625883    -0.12800
H312        H  0.20586694  0.49935074  0.31578187     0.13300
H313        H  0.20733269  0.00463609  0.17769987     0.13300
H314        H  0.26213528  0.00460183  0.17882907     0.13300
H315        H  0.26054268  0.49932050  0.31690289     0.13300
C316        C  0.16867157  0.00196095  0.74607380     0.80800
N317        N  0.15280065  0.00236770  0.78337432    -0.77500
C318        C  0.12226298  0.50236741  0.78283609     0.83200
N319        N  0.10740675  0.50191988  0.74495942    -0.77500
C320        C  0.12301329  0.50148995  0.70765945     0.83300
N321        N  0.15353808  0.00152774  0.70822553    -0.79200
C322        C  0.29922647  0.00195582  0.74883551     0.80800
N323        N  0.31541478  0.00132218  0.71181735    -0.77500
C324        C  0.34596643  0.00134284  0.71296827     0.83200
N325        N  0.36047546  0.50208024  0.75109056    -0.77500
C326        C  0.34449857  0.00274861  0.78802618     0.83300
N327        N  0.31402154  0.00265489  0.78690152    -0.79200
C328        C  0.48349702  0.68702840  0.74786120     0.80800
N329        N  0.48381992  0.67127984  0.71049973    -0.77500
C330        C  0.48414652  0.64064895  0.71103364     0.83200
N331        N  0.48355251  0.62569342  0.74886716    -0.77500
C332        C  0.48292494  0.64133172  0.78619137     0.83300
N333        N  0.48319884  0.67195612  0.78572280    -0.79200
C334        C  0.48363205  0.81695943  0.74592304     0.81300
N335        N  0.48390011  0.83205994  0.70808480    -0.77500
C336        C  0.48409226  0.86268459  0.70766094     0.83200
N337        N  0.48341030  0.87829465  0.74500641    -0.77500
C338        C  0.48284443  0.86331049  0.78281794     0.83300
N339        N  0.48325287  0.83267969  0.78330809    -0.79200
N340        N  0.04889912  0.51645986  0.54505459    -0.05600
N341        N  0.06500654  0.52665695  0.57749528    -0.57700
N342        N  0.04784366  0.98751677  0.94577277    -0.05200
N343        N  0.06339374  0.97729882  0.91274375    -0.59800
N344        N  0.04787466  0.51723590  0.94625936    -0.04800
N345        N  0.06345392  0.52789032  0.91355367    -0.57700
N346        N  0.04891005  0.98673466  0.54454567    -0.04500
N347        N  0.06502475  0.97603824  0.57663973    -0.60200
C348        C  0.07490771  0.50121431  0.59668253     0.96600
C349        C  0.07294943  0.50271827  0.89311116     0.96400
N350        N  0.46736133  0.93747711  0.94658689    -0.05700
N351        N  0.45634196  0.92180740  0.91416379    -0.58300
N352        N  0.49927893  0.93631567  0.54386719    -0.03900
N353        N  0.00941230  0.92083969  0.57707319    -0.59500
N354        N  0.46968361  0.93640621  0.54514706    -0.05800
N355        N  0.45986849  0.92045219  0.57794271    -0.58500
N356        N  0.49695864  0.93750554  0.94531992    -0.03500
N357        N  0.00795998  0.92191771  0.91327240    -0.59600
Mn358      Mn  0.02403452  0.96138070  0.99531755     1.18400
C359        C  0.48121132  0.91231150  0.89315139     0.98700
C360        C  0.48539046  0.91052285  0.59655980     0.99400
N361        N  0.49720943  0.56758680  0.94869379    -0.05800
N362        N  0.00784539  0.58313180  0.91582259    -0.62100
N363        N  0.46992860  0.56647063  0.54850714    -0.04600
N364        N  0.46014266  0.58204463  0.58174387    -0.62800
N365        N  0.49952673  0.56649182  0.54724804    -0.05300
N366        N  0.00927097  0.58215151  0.57977380    -0.62400
N367        N  0.46761335  0.56767749  0.94995404    -0.04200
N368        N  0.45663229  0.58377038  0.91798320    -0.63100
Mn369      Mn  0.02403733  0.54261485  0.99674706     1.10700
C370        C  0.48152402  0.59350441  0.89730234     0.99900
C371        C  0.48567817  0.59163199  0.60070750     1.00000
N372        N  0.42001835  0.98663514  0.54935428    -0.05300
N373        N  0.40494269  0.97586088  0.58244089    -0.60700
N374        N  0.41755215  0.51751877  0.95152444    -0.04600
N375        N  0.40129037  0.52834804  0.91970968    -0.57400
N376        N  0.41751576  0.98781166  0.95080344    -0.05900
N377        N  0.40123348  0.97774337  0.91850899    -0.60300
N378        N  0.42009992  0.51634402  0.55008874    -0.04900
N379        N  0.40508899  0.52643947  0.58367806    -0.57400
Mn380      Mn  0.44288776  0.96134098  0.99794945     1.20200
Mn381      Mn  0.44304208  0.54274803  0.00003978     1.10100
Cl382      Cl  0.48343987  0.50198800  0.99691118    -0.85400
C383        C  0.39584413  0.50094488  0.60338801     0.96900
C384        C  0.39125821  0.50326276  0.89970221     0.96700
C385        C  0.48155939  0.87993299  0.82219958    -0.12700
C386        C  0.48079413  0.89447893  0.85479848    -0.14300
C387        C  0.48582174  0.89280131  0.63492210    -0.12700
C388        C  0.48518584  0.87864358  0.66780245    -0.14300
C389        C  0.48178710  0.62540042  0.82607213    -0.12700
C390        C  0.48111446  0.61124420  0.85895389    -0.14300
C391        C  0.48537140  0.62399818  0.67167234    -0.12700
C392        C  0.48610208  0.60944936  0.63907449    -0.14300
C393        C  0.46530603  0.73599806  0.71831116    -0.12800
C394        C  0.48354445  0.72024340  0.74734064     0.09400
C395        C  0.99331070  0.73633724  0.78307970    -0.12800
C396        C  0.99373071  0.76788601  0.78268278    -0.12800
C397        C  0.48363363  0.78374438  0.74639149     0.09400
C398        C  0.46535376  0.76756595  0.71783869    -0.12800
H399        H  0.45079119  0.72389422  0.69640040     0.13300
H400        H  0.00133938  0.72464346  0.81125959     0.13300
H401        H  0.00203576  0.77976193  0.81057654     0.13300
H402        H  0.45086871  0.77934928  0.69556688     0.13300
C403        C  0.35989898  0.50341864  0.82823034    -0.12700
C404        C  0.37368613  0.50362104  0.86134852    -0.14300
C405        C  0.37800401  0.50063032  0.64173029    -0.12700
C406        C  0.36307616  0.50078203  0.67397554    -0.14300
C407        C  0.10556004  0.50276644  0.82225688    -0.12700
C408        C  0.09088015  0.50290746  0.85477608    -0.14300
C409        C  0.10711306  0.50109181  0.66768731    -0.12700
C410        C  0.09283965  0.50098025  0.63488548    -0.14300
C411        C  0.21782263  0.50048639  0.78562073    -0.12800
C412        C  0.20209705  0.00195943  0.74666195     0.09400
C413        C  0.21865345  0.00338133  0.70831269    -0.12800
C414        C  0.25013374  0.00335455  0.70894106    -0.12800
C415        C  0.26582594  0.00191493  0.74793315     0.09400
C416        C  0.24926466  0.50046840  0.78625136    -0.12800
H417        H  0.20587204  0.49929279  0.81577361     0.13300
H418        H  0.20732953  0.00458287  0.67770072     0.13300
H419        H  0.26213175  0.00454692  0.67882866     0.13300
H420        H  0.26054799  0.49926285  0.81689305     0.13300
C421        C  0.66763442  0.50159828  0.24500069     0.80800
N422        N  0.65144359  0.50232338  0.28201206    -0.77500
C423        C  0.62089271  0.00244148  0.28084596     0.83200
N424        N  0.60639329  0.00177106  0.24271874    -0.77500
C425        C  0.62237170  0.00100782  0.20579126     0.83300
N426        N  0.65284419  0.50096084  0.20693007    -0.79200
C427        C  0.79817917  0.50164596  0.24777536     0.80800
N428        N  0.81404777  0.50132670  0.21047247    -0.77500
C429        C  0.84458891  0.50145745  0.21100220     0.83200
N430        N  0.85944879  0.00196663  0.24887870    -0.77500
C431        C  0.84384047  0.50231905  0.28617670     0.83300
N432        N  0.81331264  0.50212808  0.28562120    -0.79200
C433        C  0.98275102  0.18675655  0.24763089     0.80800
N434        N  0.98282264  0.17104326  0.21021070    -0.77500
C435        C  0.98298620  0.14041913  0.21055326     0.83200
N436        N  0.98281230  0.12534452  0.24827079    -0.77500
C437        C  0.98258461  0.14087387  0.28566482     0.83300
N438        N  0.98270855  0.17149376  0.28537127    -0.79200
C439        C  0.98408924  0.31722337  0.24617343     0.81300
N440        N  0.98413170  0.33250054  0.20844599    -0.77500
C441        C  0.98423082  0.36312033  0.20817853     0.83200
N442        N  0.98397869  0.37863525  0.24558343    -0.77500
C443        C  0.98380391  0.36354535  0.28328757     0.83300
N444        N  0.98399256  0.33292170  0.28360584    -0.79200
N445        N  0.54937745  0.01616540  0.04301631    -0.05600
N446        N  0.56566593  0.02621687  0.07531653    -0.57700
N447        N  0.54678121  0.48763261  0.44372740    -0.05200
N448        N  0.56178047  0.47753442  0.41013159    -0.59800
N449        N  0.54686221  0.01735489  0.44446072    -0.04800
N450        N  0.56193393  0.02812452  0.41136626    -0.57700
N451        N  0.54933240  0.48644547  0.04227961    -0.04500
N452        N  0.56559531  0.47560153  0.07408090    -0.60200
C453        C  0.57563701  0.00068148  0.09410118     0.96600
C454        C  0.57102210  0.00302144  0.39041576     0.96400
N455        N  0.96815192  0.43745416  0.44676276    -0.05700
N456        N  0.95754150  0.42179365  0.41408841    -0.58300
N457        N  0.99872053  0.43674214  0.04475279    -0.03900
N458        N  0.51027270  0.42023714  0.07584986    -0.59500
N459        N  0.96910537  0.43674188  0.04532794    -0.05800
N460        N  0.95898904  0.42086066  0.07803110    -0.58500
N461        N  0.99776874  0.43751058  0.44625190    -0.03500
N462        N  0.50675161  0.42190917  0.41210383    -0.59600
Mn463      Mn  0.52384472  0.46123053  0.49377240     1.18400
C464        C  0.98265062  0.41230668  0.39372246     0.98700
C465        C  0.98436426  0.41111288  0.09728345     0.99400
N466        N  0.99772981  0.06723505  0.44851389    -0.05800
N467        N  0.50703840  0.08356840  0.41592396    -0.62100
N468        N  0.96904877  0.06643663  0.04758675    -0.04600
N469        N  0.95884548  0.08202228  0.08056611    -0.62800
N470        N  0.99866616  0.06649341  0.04708767    -0.05300
N471        N  0.51054104  0.08214982  0.07968662    -0.62400
N472        N  0.96811425  0.06723114  0.44908414    -0.04200
N473        N  0.95742334  0.08314250  0.41677452    -0.63100
Mn474      Mn  0.52400268  0.04264420  0.49587490     1.10700
C475        C  0.98247061  0.09288293  0.39657245     0.99900
C476        C  0.98415320  0.09163256  0.10013235     1.00000
N477        N  0.91896088  0.48673308  0.04757241    -0.05300
N478        N  0.90338499  0.47607333  0.08027586    -0.60700
N479        N  0.91792983  0.01721964  0.44928274    -0.04600
N480        N  0.90181814  0.02790414  0.41717747    -0.57400
N481        N  0.91793625  0.48748571  0.44878878    -0.05900
N482        N  0.90183622  0.47728022  0.41634813    -0.60300
N483        N  0.91897481  0.01643022  0.04805792    -0.04900
N484        N  0.90342457  0.02664473  0.08108934    -0.57400
Mn485      Mn  0.94280349  0.46133948  0.49710013     1.20200
Mn486      Mn  0.94279973  0.04258201  0.49851752     1.10100
Cl487      Cl  0.98341807  0.00198297  0.49691830    -0.85400
C488        C  0.89388205  0.00121954  0.10072071     0.96900
C489        C  0.89194147  0.00274182  0.39714860     0.96700
C490        C  0.98308820  0.38004890  0.32273970    -0.12700
C491        C  0.98257409  0.39453247  0.35536888    -0.14300
C492        C  0.98462318  0.39340638  0.13561690    -0.12700
C493        C  0.98451421  0.37917713  0.16841865    -0.14300
C494        C  0.98231064  0.12483065  0.32544043    -0.12700
C495        C  0.98220989  0.11060139  0.35824507    -0.14300
C496        C  0.98369503  0.12389902  0.17111197    -0.12700
C497        C  0.98421735  0.10940805  0.13848788    -0.14300
C498        C  0.97315006  0.23609430  0.21108970    -0.12800
C499        C  0.98301893  0.22013308  0.24728757     0.09400
C500        C  0.50186201  0.23641929  0.27584376    -0.12800
C501        C  0.50191343  0.26798751  0.27537231    -0.12800
C502        C  0.98384877  0.28384740  0.24649285     0.09400
C503        C  0.97356984  0.26764407  0.21069283    -0.12800
H504        H  0.96484586  0.22421809  0.18319516     0.13300
H505        H  0.51636300  0.22463248  0.29809114     0.13300
H506        H  0.51644632  0.28009074  0.29725895     0.13300
H507        H  0.96554222  0.27933886  0.18251340     0.13300
C508        C  0.85974375  0.00280332  0.32614545    -0.12700
C509        C  0.87401543  0.00296124  0.35894535    -0.14300
C510        C  0.87596029  0.00101647  0.13905987    -0.12700
C511        C  0.86128837  0.00111581  0.17158407    -0.14300
C512        C  0.60378446  0.00310475  0.31982907    -0.12700
C513        C  0.58885673  0.00331803  0.35207166    -0.14300
C514        C  0.60698301  0.00043192  0.16558049    -0.12700
C515        C  0.59320438  0.00029275  0.13245608    -0.14300
C516        C  0.71672251  0.00005507  0.28490386    -0.12800
C517        C  0.70103208  0.50154735  0.24590908     0.09400
C518        C  0.71759788  0.50306182  0.20759466    -0.12800
C519        C  0.74903757  0.50305917  0.20822812    -0.12800
C520        C  0.76475652  0.50153930  0.24718688     0.09400
C521        C  0.74820301  0.00004750  0.28553682    -0.12800
H522        H  0.70472122  0.99882722  0.31501154     0.13300
H523        H  0.70631626  0.50434910  0.17695832     0.13300
H524        H  0.76098777  0.50434438  0.17808294     0.13300
H525        H  0.75952738  0.99882305  0.31614617     0.13300
C526        C  0.66763673  0.50159819  0.74500645     0.80800
N527        N  0.65144526  0.50232155  0.78201749    -0.77500
C528        C  0.62089007  0.00244465  0.78084536     0.83200
N529        N  0.60638975  0.00177240  0.74271897    -0.77500
C530        C  0.62236734  0.00100659  0.70579097     0.83300
N531        N  0.65284693  0.50096207  0.70693544    -0.79200
C532        C  0.79818189  0.50164164  0.74777895     0.80800
N533        N  0.81404996  0.50130968  0.71047583    -0.77500
C534        C  0.84459105  0.50144463  0.71100446     0.83200
N535        N  0.85944487  0.00195942  0.74887336    -0.77500
C536        C  0.84384370  0.50233561  0.78617809     0.83300
N537        N  0.81331592  0.50214055  0.78562386    -0.79200
C538        C  0.98273493  0.18675894  0.74764002     0.80800
N539        N  0.98281491  0.17104873  0.71021754    -0.77500
C540        C  0.98298481  0.14042467  0.71055655     0.83200
N541        N  0.98280615  0.12534772  0.74827197    -0.77500
C542        C  0.98256879  0.14087440  0.78566798     0.83300
N543        N  0.98268934  0.17149443  0.78537881    -0.79200
C544        C  0.98407421  0.31722068  0.74618471     0.81300
N545        N  0.98412199  0.33249627  0.70845621    -0.77500
C546        C  0.98422798  0.36311605  0.70818757     0.83200
N547        N  0.98397462  0.37863171  0.74559167    -0.77500
C548        C  0.98379320  0.36354288  0.78329646     0.83300
N549        N  0.98397780  0.33291922  0.78361668    -0.79200
N550        N  0.54937642  0.01616407  0.54301342    -0.05600
N551        N  0.56566456  0.02621602  0.57531366    -0.57700
N552        N  0.54677413  0.48762700  0.94372683    -0.05200
N553        N  0.56177427  0.47752687  0.91013278    -0.59800
N554        N  0.54686351  0.01736067  0.94446381    -0.04800
N555        N  0.56193423  0.02813233  0.91136979    -0.57700
N556        N  0.54933871  0.48644686  0.54228011    -0.04500
N557        N  0.56560180  0.47560258  0.57408099    -0.60200
C558        C  0.57563368  0.00068078  0.59410079     0.96600
C559        C  0.57102295  0.00303034  0.89041711     0.96400
N560        N  0.96814113  0.43746880  0.94675659    -0.05700
N561        N  0.95752795  0.42180779  0.91408447    -0.58300
N562        N  0.99873057  0.43673852  0.54476164    -0.03900
N563        N  0.51028070  0.42023565  0.57584519    -0.59500
N564        N  0.96911538  0.43673255  0.54533450    -0.05800
N565        N  0.95900074  0.42085129  0.57803841    -0.58500
N566        N  0.99775795  0.43752012  0.94624525    -0.03500
N567        N  0.50674040  0.42190710  0.91210709    -0.59600
Mn568      Mn  0.52383665  0.46122834  0.99377458     1.18400
C569        C  0.98263559  0.41231540  0.89371972     0.98700
C570        C  0.98437682  0.41110946  0.59729400     0.99400
N571        N  0.99771022  0.06722687  0.94850675    -0.05800
N572        N  0.50703739  0.08357262  0.91593063    -0.62100
N573        N  0.96906718  0.06644416  0.54759251    -0.04600
N574        N  0.95886530  0.08203181  0.58057042    -0.62800
N575        N  0.99868460  0.06649597  0.54709498    -0.05300
N576        N  0.51054365  0.08215051  0.57968185    -0.62400
N577        N  0.96809466  0.06721756  0.94907656    -0.04200
N578        N  0.95740110  0.08312684  0.91676651    -0.63100
Mn579      Mn  0.52400254  0.04264635  0.99587942     1.10700
C580        C  0.98244692  0.09287154  0.89656475     0.99900
C581        C  0.98417368  0.09163809  0.60013800     1.00000
N582        N  0.91896182  0.48671291  0.54757332    -0.05300
N583        N  0.90338892  0.47605140  0.58027842    -0.60700
N584        N  0.91791986  0.01719602  0.94928071    -0.04600
N585        N  0.90180616  0.02787565  0.91717424    -0.57400
N586        N  0.91793584  0.48751081  0.94878812    -0.05900
N587        N  0.90183429  0.47730982  0.91634634    -0.60300
N588        N  0.91898311  0.01644837  0.54805979    -0.04900
N589        N  0.90343257  0.02666427  0.58109026    -0.57400
Mn590      Mn  0.94279767  0.46135703  0.99709665     1.20200
Mn591      Mn  0.94278526  0.04256631  0.99851312     1.10100
Cl592      Cl  0.98341165  0.00197504  0.99691798    -0.85400
C593        C  0.89388384  0.00123994  0.60071806     0.96900
C594        C  0.89193454  0.00271052  0.89714736     0.96700
C595        C  0.98307367  0.38004805  0.82274660    -0.12700
C596        C  0.98255711  0.39453573  0.85537176    -0.14300
C597        C  0.98463598  0.39340257  0.63562690    -0.12700
C598        C  0.98452101  0.37917241  0.66842770    -0.14300
C599        C  0.98228840  0.12482769  0.82544052    -0.12700
C600        C  0.98218441  0.11059391  0.85824113    -0.14300
C601        C  0.98370673  0.12390682  0.67111437    -0.12700
C602        C  0.98423738  0.10941530  0.63849134    -0.14300
C603        C  0.97305646  0.23609564  0.71114433    -0.12800
C604        C  0.98299933  0.22013403  0.74730012     0.09400
C605        C  0.50184544  0.23642103  0.77586376    -0.12800
C606        C  0.50189481  0.26798940  0.77539290    -0.12800
C607        C  0.98382961  0.28384622  0.74650573     0.09400
C608        C  0.97347630  0.26764539  0.71074748    -0.12800
H609        H  0.96469446  0.22421910  0.68328486     0.13300
H610        H  0.51633558  0.22463536  0.79812671     0.13300
H611        H  0.51641548  0.28009330  0.79729523     0.13300
H612        H  0.96539099  0.27934270  0.68260366     0.13300
C613        C  0.85973918  0.00277167  0.82614129    -0.12700
C614        C  0.87400961  0.00292562  0.85894256    -0.14300
C615        C  0.87595906  0.00103787  0.63905494    -0.12700
C616        C  0.86128537  0.00113385  0.67157787    -0.14300
C617        C  0.60378291  0.00311259  0.81982889    -0.12700
C618        C  0.58885625  0.00332838  0.85207222    -0.14300
C619        C  0.60697794  0.00043072  0.66558109    -0.12700
C620        C  0.59319971  0.00029229  0.63245656    -0.14300
C621        C  0.71671926  0.00002674  0.78489680    -0.12800
C622        C  0.70103460  0.50154513  0.74591496     0.09400
C623        C  0.71760041  0.50302211  0.70759750    -0.12800
C624        C  0.74904001  0.50301726  0.70823020    -0.12800
C625        C  0.76475923  0.50153335  0.74719158     0.09400
C626        C  0.74819970  0.00002025  0.78552879    -0.12800
H627        H  0.70471837  0.99877219  0.81500260     0.13300
H628        H  0.70631891  0.50428062  0.67695847     0.13300
H629        H  0.76098987  0.50427256  0.67808232     0.13300
H630        H  0.75952457  0.99876987  0.81613559     0.13300
C631        C  0.66763613  0.00159782  0.24500287     0.80800
N632        N  0.65144356  0.00231900  0.28201300    -0.77500
C633        C  0.62089281  0.50245260  0.28084746     0.83200
N634        N  0.60639169  0.50178323  0.24272160    -0.77500
C635        C  0.62236846  0.50101509  0.20579295     0.83300
N636        N  0.65284735  0.00095889  0.20693109    -0.79200
C637        C  0.79818155  0.00164981  0.24778059     0.80800
N638        N  0.81404978  0.00131799  0.21047761    -0.77500
C639        C  0.84459085  0.00144600  0.21100651     0.83200
N640        N  0.85944631  0.50196881  0.24887523    -0.77500
C641        C  0.84384335  0.00232914  0.28618017     0.83300
N642        N  0.81331553  0.00214148  0.28562569    -0.79200
C643        C  0.98273856  0.68675991  0.24764173     0.80800
N644        N  0.98281499  0.67104971  0.21021940    -0.77500
C645        C  0.98298613  0.64042569  0.21055883     0.83200
N646        N  0.98281110  0.62534899  0.24827447    -0.77500
C647        C  0.98257679  0.64087591  0.28567031     0.83300
N648        N  0.98269715  0.67149593  0.28538086    -0.79200
C649        C  0.98407286  0.81721965  0.24618349     0.81300
N650        N  0.98411640  0.83249479  0.20845472    -0.77500
C651        C  0.98422166  0.86311456  0.20818589     0.83200
N652        N  0.98397085  0.87863041  0.24558987    -0.77500
C653        C  0.98379319  0.86354175  0.28329484     0.83300
N654        N  0.98397955  0.83291812  0.28361537    -0.79200
N655        N  0.54937488  0.51615733  0.04301630    -0.05600
N656        N  0.56566230  0.52621062  0.07531619    -0.57700
N657        N  0.54677411  0.98763328  0.44372389    -0.05200
N658        N  0.56177278  0.97753164  0.41012963    -0.59800
N659        N  0.54686663  0.51735419  0.44446723    -0.04800
N660        N  0.56193694  0.52812729  0.41137409    -0.57700
N661        N  0.54933571  0.98645356  0.04227591    -0.04500
N662        N  0.56560011  0.97560789  0.07407435    -0.60200
C663        C  0.57563200  0.50067643  0.09410499     0.96600
C664        C  0.57102727  0.50302642  0.39042070     0.96400
N665        N  0.96814193  0.93746526  0.44675706    -0.05700
N666        N  0.95752878  0.92180470  0.41408447    -0.58300
N667        N  0.99872697  0.93673646  0.04476035    -0.03900
N668        N  0.51027793  0.92024365  0.07584430    -0.59500
N669        N  0.96911185  0.93673154  0.04533398    -0.05800
N670        N  0.95899672  0.92085052  0.07803766    -0.58500
N671        N  0.99775873  0.93751714  0.44624499    -0.03500
N672        N  0.50673944  0.92191385  0.41210267    -0.59600
Mn673      Mn  0.52383685  0.96123533  0.49377159     1.18400
C674        C  0.98263646  0.91231314  0.39371892     0.98700
C675        C  0.98437247  0.91110772  0.09729269     0.99400
N676        N  0.99771396  0.56722816  0.44850827    -0.05800
N677        N  0.50703986  0.58356519  0.41593166    -0.62100
N678        N  0.96906622  0.56644690  0.04759354    -0.04600
N679        N  0.95886434  0.58203368  0.08057217    -0.62800
N680        N  0.99868363  0.56649927  0.04709523    -0.05300
N681        N  0.51054425  0.58214168  0.07968607    -0.62400
N682        N  0.96809846  0.56721979  0.44907830    -0.04200
N683        N  0.95740552  0.58312955  0.41676826    -0.63100
Mn684      Mn  0.52400542  0.54263900  0.49588169     1.10700
C685        C  0.98245185  0.59287343  0.39656671     0.99900
C686        C  0.98417271  0.59164005  0.10013960     1.00000
N687        N  0.91895912  0.98671238  0.04757403    -0.05300
N688        N  0.90338700  0.97605176  0.08028047    -0.60700
N689        N  0.91792359  0.51719953  0.44928211    -0.04600
N690        N  0.90180995  0.52788119  0.41717706    -0.57400
N691        N  0.91793699  0.98750587  0.44878936    -0.05900
N692        N  0.90183537  0.97730309  0.41634897    -0.60300
N693        N  0.91898238  0.51645088  0.04806021    -0.04900
N694        N  0.90343241  0.52666621  0.08109155    -0.57400
Mn695      Mn  0.94279867  0.96135377  0.49709762     1.20200
Mn696      Mn  0.94278878  0.54256797  0.49851485     1.10100
Cl697      Cl  0.98341498  0.50197650  0.49691894    -0.85400
C698        C  0.89388393  0.50124154  0.10071869     0.96900
C699        C  0.89193762  0.50271746  0.39714780     0.96700
C700        C  0.98307481  0.88004700  0.32274483    -0.12700
C701        C  0.98255816  0.89453426  0.35537030    -0.14300
C702        C  0.98463060  0.89340083  0.13562536    -0.12700
C703        C  0.98451419  0.87917074  0.16842607    -0.14300
C704        C  0.98229656  0.62482948  0.32544282    -0.12700
C705        C  0.98219069  0.61059578  0.35824334    -0.14300
C706        C  0.98370613  0.62390772  0.17111680    -0.12700
C707        C  0.98423636  0.60941657  0.13849348    -0.14300
C708        C  0.97302540  0.73609527  0.21116359    -0.12800
C709        C  0.98300176  0.72013441  0.24730123     0.09400
C710        C  0.50181776  0.73642237  0.27589974    -0.12800
C711        C  0.50186552  0.76799100  0.27542785    -0.12800
C712        C  0.98382959  0.78384577  0.24650496     0.09400
C713        C  0.97344413  0.76764501  0.21076589    -0.12800
H714        H  0.96463789  0.72421794  0.18332046     0.13300
H715        H  0.51628678  0.72463864  0.29819240     0.13300
H716        H  0.51636389  0.78009568  0.29735926     0.13300
H717        H  0.96533244  0.77934266  0.18263752     0.13300
C718        C  0.85974048  0.50278312  0.32614308    -0.12700
C719        C  0.87401177  0.50293555  0.35894373    -0.14300
C720        C  0.87596023  0.50103895  0.13905646    -0.12700
C721        C  0.86128718  0.50113540  0.17157989    -0.14300
C722        C  0.60378651  0.50311703  0.31983184    -0.12700
C723        C  0.58886040  0.50332758  0.35207575    -0.14300
C724        C  0.60697797  0.50043510  0.16558394    -0.12700
C725        C  0.59319867  0.50029096  0.13246030    -0.14300
C726        C  0.71672084  0.49999075  0.28489445    -0.12800
C727        C  0.70103407  0.00155210  0.24591327     0.09400
C728        C  0.71760063  0.00301069  0.20759499    -0.12800
C729        C  0.74904019  0.00300886  0.20822912    -0.12800
C730        C  0.76475880  0.00154617  0.24719264     0.09400
C731        C  0.74820127  0.49998202  0.28552668    -0.12800
H732        H  0.70471971  0.49871623  0.31499835     0.13300
H733        H  0.70631980  0.00425021  0.17695394     0.13300
H734        H  0.76099049  0.00424708  0.17808008     0.13300
H735        H  0.75952612  0.49871021  0.31613168     0.13300
C736        C  0.66763253  0.00159827  0.74500029     0.80800
N737        N  0.65144090  0.00232135  0.78201108    -0.77500
C738        C  0.62089438  0.50244976  0.78085192     0.83200
N739        N  0.60639392  0.50178190  0.74272545    -0.77500
C740        C  0.62237129  0.50101615  0.70579723     0.83300
N741        N  0.65284301  0.00095766  0.70692926    -0.79200
C742        C  0.79817760  0.00165216  0.74777416     0.80800
N743        N  0.81404595  0.00133190  0.71047097    -0.77500
C744        C  0.84458718  0.00145508  0.71100037     0.83200
N745        N  0.85944902  0.50197283  0.74887648    -0.77500
C746        C  0.84383925  0.00231042  0.78617497     0.83300
N747        N  0.81331143  0.00212751  0.78561976    -0.79200
C748        C  0.98275238  0.68675699  0.74763102     0.80800
N749        N  0.98282370  0.67104377  0.71021090    -0.77500
C750        C  0.98298788  0.64041972  0.71055362     0.83200
N751        N  0.98281479  0.62534514  0.74827106    -0.77500
C752        C  0.98258722  0.64087454  0.78566493     0.83300
N753        N  0.98271066  0.67149437  0.78537141    -0.79200
C754        C  0.98409038  0.81722278  0.74617322     0.81300
N755        N  0.98413160  0.83250023  0.70844613    -0.77500
C756        C  0.98422898  0.86311998  0.70817947     0.83200
N757        N  0.98397613  0.87863449  0.74558459    -0.77500
C758        C  0.98380256  0.86354414  0.78328828     0.83300
N759        N  0.98399318  0.83292058  0.78360592    -0.79200
N760        N  0.54937977  0.51615873  0.54301883    -0.05600
N761        N  0.56566627  0.52621161  0.57531991    -0.57700
N762        N  0.54677652  0.98763909  0.94372457    -0.05200
N763        N  0.56177491  0.97753945  0.91012907    -0.59800
N764        N  0.54686098  0.51734857  0.94446474    -0.04800
N765        N  0.56193308  0.52811974  0.91137195    -0.57700
N766        N  0.54933312  0.98645221  0.54227545    -0.04500
N767        N  0.56559597  0.97560696  0.57407563    -0.60200
C768        C  0.57563704  0.50067729  0.59410717     0.96600
C769        C  0.57102298  0.50301782  0.89042075     0.96400
N770        N  0.96814809  0.93745226  0.94676301    -0.05700
N771        N  0.95753751  0.92179133  0.91408920    -0.58300
N772        N  0.99872117  0.93673911  0.54475280    -0.03900
N773        N  0.51027317  0.92024501  0.57584952    -0.59500
N774        N  0.96910602  0.93673964  0.54532849    -0.05800
N775        N  0.95898934  0.92085970  0.57803246    -0.58500
N776        N  0.99776489  0.93750937  0.94625094    -0.03500
N777        N  0.50674551  0.92191612  0.91209924    -0.59600
Mn778      Mn  0.52384057  0.96123760  0.99376939     1.18400
C779        C  0.98264659  0.91230486  0.89372264     0.98700
C780        C  0.98436433  0.91111183  0.59728494     0.99400
N781        N  0.99772894  0.56723774  0.94851447    -0.05800
N782        N  0.50703728  0.58356067  0.91592585    -0.62100
N783        N  0.96905204  0.56643738  0.54758837    -0.04600
N784        N  0.95884859  0.58202257  0.58056794    -0.62800
N785        N  0.99866940  0.56649499  0.54708851    -0.05300
N786        N  0.51054652  0.58214113  0.57968970    -0.62400
N787        N  0.96811343  0.56723455  0.94908504    -0.04200
N788        N  0.95742289  0.58314552  0.91677482    -0.63100
Mn789      Mn  0.52400123  0.54263680  0.99587801     1.10700
C790        C  0.98247050  0.59288489  0.89657250     0.99900
C791        C  0.98415623  0.59163338  0.60013363     1.00000
N792        N  0.91896173  0.98673053  0.54757303    -0.05300
N793        N  0.90338533  0.97607139  0.58027635    -0.60700
N794        N  0.91792909  0.51722456  0.94928357    -0.04600
N795        N  0.90181808  0.52791080  0.91717884    -0.57400
N796        N  0.91793301  0.98748225  0.94878991    -0.05900
N797        N  0.90183355  0.97727463  0.91635014    -0.60300
N798        N  0.91897769  0.51643075  0.54805873    -0.04900
N799        N  0.90342663  0.52664434  0.58109000    -0.57400
Mn800      Mn  0.94280026  0.96133793  0.99710082     1.20200
Mn801      Mn  0.94279894  0.54258537  0.99851856     1.10100
Cl802      Cl  0.98341715  0.50198616  0.99691832    -0.85400
C803        C  0.89388356  0.50121860  0.60071959     0.96900
C804        C  0.89194109  0.50274967  0.89714767     0.96700
C805        C  0.98308551  0.88004705  0.82274055    -0.12700
C806        C  0.98257023  0.89453047  0.85536962    -0.14300
C807        C  0.98462255  0.89340606  0.63561859    -0.12700
C808        C  0.98451254  0.87917702  0.66842025    -0.14300
C809        C  0.98231267  0.62483151  0.82544023    -0.12700
C810        C  0.98221065  0.61060256  0.85824485    -0.14300
C811        C  0.98369704  0.62389973  0.67111266    -0.12700
C812        C  0.98422004  0.60940882  0.63848878    -0.14300
C813        C  0.97314855  0.73609422  0.71109110    -0.12800
C814        C  0.98302024  0.72013324  0.74728756     0.09400
C815        C  0.50183394  0.73642171  0.77588144    -0.12800
C816        C  0.50188155  0.76799023  0.77540934    -0.12800
C817        C  0.98385080  0.78384707  0.74649210     0.09400
C818        C  0.97356878  0.76764390  0.71069385    -0.12800
H819        H  0.96484185  0.72421794  0.68319822     0.13300
H820        H  0.51631382  0.72463769  0.79815962     0.13300
H821        H  0.51639049  0.78009514  0.79732622     0.13300
H822        H  0.96553882  0.77933873  0.68251577     0.13300
C823        C  0.85974420  0.50281395  0.82614341    -0.12700
C824        C  0.87401558  0.50297153  0.85894369    -0.14300
C825        C  0.87596098  0.50101446  0.63905809    -0.12700
C826        C  0.86128862  0.50111364  0.67158196    -0.14300
C827        C  0.60378698  0.50310953  0.81983578    -0.12700
C828        C  0.58885880  0.50331755  0.85207795    -0.14300
C829        C  0.60698157  0.50043621  0.66558754    -0.12700
C830        C  0.59320305  0.50029157  0.63246318    -0.14300
C831        C  0.71672367  0.50002319  0.78490303    -0.12800
C832        C  0.70103029  0.00155472  0.74590929     0.09400
C833        C  0.71759601  0.00304678  0.70759293    -0.12800
C834        C  0.74903567  0.00304642  0.70822614    -0.12800
C835        C  0.76475485  0.00155113  0.74718661     0.09400
C836        C  0.74820418  0.50001272  0.78553457    -0.12800
H837        H  0.70472283  0.49877878  0.81500962     0.13300
H838        H  0.70631441  0.00431224  0.67695473     0.13300
H839        H  0.76098562  0.00431116  0.67807902     0.13300
H840        H  0.75952922  0.49876978  0.81614194     0.13300
loop_ 
_geom_bond_atom_site_label_1 
_geom_bond_atom_site_label_2 
_geom_bond_distance 
_geom_bond_site_symmetry_2 
_ccdc_geom_bond_type 
C1            N2   1.362       .  A
C1            N6   1.361       .  A
C1           C97   1.486       .  S
N2          C213   1.358       .  A
C3            N4   1.356       .  A
C3          N212   1.358       .  A
C3           C92   1.438       .  S
N4            C5   1.356       .  A
C5          N216   1.357       .  A
C5           C94   1.436       .  S
N6          C215   1.357       .  A
C7            N8   1.362       .  A
C7           N12   1.360       .  A
C7          C100   1.485       .  S
N8            C9   1.358       .  A
C9          N220   1.355       .  A
C9          C301   1.436       .  S
N10         C219   1.355       .  A
N10         C221   1.355       .  A
C11          N12   1.355       .  A
C11         N220   1.355       .  A
C11         C298   1.431       .  S
C13          N14   1.359       .  A
C13          N18   1.359       .  A
C13          C79   1.471       .  S
N14          C15   1.357       .  A
C15          N16   1.356       .  A
C15          C76   1.434       .  S
N16          C17   1.356       .  A
C17          N18   1.356       .  A
C17          C74   1.433       .  S
C19          N20   1.359       .  A
C19          N24   1.359       .  A
C19          C82   1.471       .  S
N20          C21   1.356       .  A
C21          N22   1.356       .  A
C21          C73   1.433       .  S
N22          C23   1.356       .  A
C23          N24   1.357       .  A
C23          C70   1.434       .  S
N25          N26   1.321       .  A
N25         N241   1.316   1_545  A
N25        Mn159   2.202   1_554  S
N26          C33   1.351       .  A
N27          N28   1.321       .  A
N27         N239   1.316       .  A
N27         Mn43   2.204       .  S
N28         C244   1.351       .  A
N29          N30   1.322       .  A
N29         N237   1.316   1_545  A
N29         Mn54   2.206       .  S
N30          C34   1.351       .  A
N31          N32   1.321       .  A
N31         N235   1.316       .  A
N31        Mn148   2.202   1_554  S
N32         C243   1.351       .  A
C33         N242   1.351   1_545  A
C33          C95   1.436       .  S
C34         N238   1.351   1_545  A
C34          C93   1.438       .  S
N35          N41   1.316       .  A
N35          N36   1.322       .  A
N35         Mn65   2.207       .  S
N36          C44   1.352       .  A
N37          N39   1.316       .  A
N37         N458   1.321       .  A
N37        Mn568   2.205   1_554  S
N38         C465   1.350   1_455  A
N38         N457   1.320   1_455  A
N39          N40   1.319       .  A
N39        Mn170   2.195   1_554  S
N40          C45   1.349       .  A
N41         N462   1.319       .  A
N41        Mn463   2.196       .  S
N42         C464   1.349   1_455  A
N42         N461   1.320   1_455  A
Mn43        N136   2.202       .  S
Mn43        N562   2.201   1_455  S
Mn43        N461   2.198   1_455  S
Mn43       Cl697   2.548   1_455  S
C44         N462   1.349       .  A
C44          C71   1.434       .  S
C45         N458   1.352       .  A
C45          C72   1.433       .  S
N46          N52   1.316       .  A
N46         N467   1.319       .  A
N46        Mn474   2.195       .  S
N47         C475   1.350   1_455  A
N47         N466   1.320   1_455  A
N48          N50   1.316       .  A
N48          N49   1.319       .  A
N48        Mn171   2.196       .  S
N49          C56   1.349       .  A
N50         N471   1.322       .  A
N50        Mn579   2.206   1_554  S
N51         C476   1.351   1_455  A
N51         N470   1.321   1_455  A
N52          N53   1.321       .  A
N52         Mn66   2.205       .  S
N53          C55   1.352       .  A
Mn54        N130   2.202       .  S
Mn54        N466   2.198   1_455  S
Mn54        N575   2.204   1_455  S
Mn54       Cl487   2.549   1_455  S
C55         N467   1.349       .  A
C55          C75   1.434       .  S
C56         N471   1.352       .  A
C56          C77   1.434       .  S
N57          N58   1.321       .  A
N57         N273   1.316       .  A
N57        Mn170   2.205   1_554  S
N58         C278   1.351       .  A
N59          N60   1.320       .  A
N59         N271   1.316   1_545  A
N59         Mn66   2.197       .  S
N60          C69   1.350       .  A
N61          N62   1.319       .  A
N61         N269   1.316       .  A
N61         Mn65   2.196       .  S
N62         C279   1.349       .  A
N63          N64   1.321       .  A
N63         N267   1.316   1_545  A
N63        Mn171   2.203       .  S
N64          C68   1.351       .  A
Mn65        N144   2.195       .  S
Mn65        N162   2.205       .  S
Mn65       Cl277   2.548       .  S
Mn66        N153   2.196       .  S
Mn66        N168   2.203       .  S
Mn66        Cl67   2.548       .  S
Cl67       Mn673   2.547   1_545  S
Cl67       Mn474   2.548       .  S
Cl67       Mn275   2.548   1_545  S
C68         N268   1.351   1_545  A
C68          C90   1.436       .  S
C69         N272   1.349   1_545  A
C69          C89   1.431       .  S
C70          C71   1.205       .  T
C72          C73   1.204       .  T
C74          C75   1.204       .  T
C76          C77   1.205       .  T
C78          C79   1.403       .  A
C78          C83   1.398       .  A
C78          H84   1.083       .  S
C79         C500   1.403       .  A
C80          C81   1.397       .  A
C80         C499   1.405       .  A
C80          H85   1.083   1_655  S
C81         C502   1.405       .  A
C81          H86   1.083   1_655  S
C82          C83   1.403       .  A
C82         C501   1.403       .  A
C83          H87   1.083       .  S
C88         C221   1.431       .  S
C88          C89   1.203       .  T
C90          C91   1.206       .  T
C91         C219   1.436       .  S
C92          C93   1.207       .  T
C94          C95   1.206       .  T
C96         C101   1.398       .  A
C96         C307   1.406       .  A
C96         H102   1.083   1_545  S
C97          C98   1.407       .  A
C97         C306   1.406       .  A
C98          C99   1.399       .  A
C98         H103   1.082       .  S
C99         C100   1.406       .  A
C99         H104   1.082       .  S
C100        C311   1.407       .  A
C101        C310   1.407       .  A
C101        H105   1.082   1_545  S
C106        N107   1.362       .  A
C106        N111   1.361       .  A
C106        C202   1.486       .  S
N107        C318   1.358       .  A
C108        N317   1.358       .  A
C108        N109   1.356       .  A
C108        C197   1.438       .  S
N109        C110   1.356       .  A
C110        N321   1.357       .  A
C110        C199   1.435       .  S
N111        C320   1.357       .  A
C112        N113   1.362       .  A
C112        N117   1.360       .  A
C112        C205   1.485       .  S
N113        C114   1.358       .  A
C114        N325   1.355       .  A
C114        C406   1.436       .  S
N115        C324   1.355       .  A
N115        C326   1.355       .  A
C116        N325   1.355       .  A
C116        N117   1.355       .  A
C116        C403   1.431       .  S
C118        N119   1.359       .  A
C118        N123   1.359       .  A
C118        C184   1.471       .  S
N119        C120   1.357       .  A
C120        N121   1.356       .  A
C120        C181   1.434       .  S
N121        C122   1.356       .  A
C122        N123   1.356       .  A
C122        C179   1.433       .  S
C124        N125   1.359       .  A
C124        N129   1.359       .  A
C124        C187   1.471       .  S
N125        C126   1.356       .  A
C126        N127   1.356       .  A
C126        C178   1.433       .  S
N127        C128   1.356       .  A
C128        N129   1.357       .  A
C128        C175   1.434       .  S
N130        N131   1.321       .  A
N130        N346   1.316   1_545  A
N131        C138   1.351       .  A
N132        N344   1.316       .  A
N132        N133   1.321       .  A
N132       Mn148   2.204       .  S
N133        C349   1.351       .  A
N134        N342   1.316   1_545  A
N134        N135   1.322       .  A
N134       Mn159   2.206       .  S
N135        C139   1.351       .  A
N136        N340   1.316       .  A
N136        N137   1.321       .  A
N137        C348   1.351       .  A
C138        N347   1.351   1_545  A
C138        C200   1.436       .  S
C139        N343   1.351   1_545  A
C139        C198   1.438       .  S
N140        N146   1.316       .  A
N140        N141   1.322       .  A
N140       Mn170   2.207       .  S
N141        C149   1.352       .  A
N142        N563   1.321       .  A
N142        N144   1.316       .  A
N142       Mn463   2.205       .  S
N143        C570   1.350   1_455  A
N143        N562   1.320   1_455  A
N144        N145   1.319       .  A
N145        C150   1.349       .  A
N146        N567   1.319       .  A
N146       Mn568   2.196       .  S
N147        C569   1.349   1_455  A
N147        N566   1.320   1_455  A
Mn148       N457   2.201   1_456  S
Mn148       N566   2.198   1_455  S
Mn148      Cl802   2.548   1_455  S
C149        N567   1.349       .  A
C149        C176   1.435       .  S
C150        N563   1.352       .  A
C150        C177   1.434       .  S
N151        N572   1.319       .  A
N151        N157   1.316       .  A
N151       Mn579   2.195       .  S
N152        C580   1.350   1_455  A
N152        N571   1.320   1_455  A
N153        N155   1.316       .  A
N153        N154   1.319       .  A
N154        C161   1.349       .  A
N155        N576   1.322       .  A
N155       Mn474   2.207       .  S
N156        C581   1.351   1_455  A
N156        N575   1.321   1_455  A
N157        N158   1.321       .  A
N157       Mn171   2.205   1_556  S
N158        C160   1.352       .  A
Mn159       N571   2.198   1_455  S
Mn159       N470   2.204   1_456  S
Mn159      Cl592   2.549   1_455  S
C160        N572   1.349       .  A
C160        C180   1.434       .  S
C161        N576   1.352       .  A
C161        C182   1.435       .  S
N162        N163   1.321       .  A
N162        N378   1.316       .  A
N163        C383   1.351       .  A
N164        N165   1.320       .  A
N164        N376   1.316   1_545  A
N164       Mn171   2.197   1_556  S
N165        C174   1.350       .  A
N166        N374   1.316       .  A
N166        N167   1.319       .  A
N166       Mn170   2.196       .  S
N167        C384   1.349       .  A
N168        N372   1.316   1_545  A
N168        N169   1.321       .  A
N169        C173   1.351       .  A
Mn170      Cl382   2.548       .  S
Mn171      Cl172   2.547   1_554  S
Cl172      Mn778   2.547   1_545  S
Cl172      Mn579   2.548       .  S
Cl172      Mn380   2.548   1_545  S
C173        N373   1.351   1_545  A
C173        C195   1.436       .  S
C174        N377   1.349   1_545  A
C174        C194   1.431       .  S
C175        C176   1.205       .  T
C177        C178   1.204       .  T
C179        C180   1.204       .  T
C181        C182   1.205       .  T
C183        C184   1.403       .  A
C183        C188   1.398       .  A
C183        H189   1.083       .  S
C184        C605   1.403       .  A
C185        C604   1.405       .  A
C185        C186   1.397       .  A
C185        H190   1.083   1_655  S
C186        C607   1.405       .  A
C186        H191   1.083   1_655  S
C187        C606   1.403       .  A
C187        C188   1.403       .  A
C188        H192   1.083       .  S
C193        C326   1.431       .  S
C193        C194   1.203       .  T
C195        C196   1.206       .  T
C196        C324   1.436       .  S
C197        C198   1.207       .  T
C199        C200   1.206       .  T
C201        C412   1.406       .  A
C201        C206   1.398       .  A
C201        H207   1.083   1_545  S
C202        C411   1.406       .  A
C202        C203   1.407       .  A
C203        C204   1.399       .  A
C203        H208   1.082       .  S
C204        C205   1.406       .  A
C204        H209   1.082       .  S
C205        C416   1.407       .  A
C206        C415   1.407       .  A
C206        H210   1.082   1_545  S
C211        N212   1.362       .  A
C211        N216   1.361       .  A
C211        C307   1.486       .  S
C213        N214   1.356       .  A
C213        C302   1.438       .  S
N214        C215   1.356       .  A
C215        C304   1.435       .  S
C217        N218   1.362       .  A
C217        N222   1.360       .  A
C217        C310   1.485       .  S
N218        C219   1.358       .  A
C221        N222   1.355       .  A
C223        N224   1.359       .  A
C223        N228   1.359       .  A
C223        C289   1.471       .  S
N224        C225   1.357       .  A
C225        N226   1.356       .  A
C225        C286   1.434       .  S
N226        C227   1.356       .  A
C227        N228   1.356       .  A
C227        C284   1.433       .  S
C229        N230   1.359       .  A
C229        N234   1.359       .  A
C229        C292   1.471       .  S
N230        C231   1.356       .  A
C231        N232   1.356       .  A
C231        C283   1.433       .  S
N232        C233   1.356       .  A
C233        N234   1.357       .  A
C233        C280   1.434       .  S
N235        N236   1.321       .  A
N235       Mn369   2.202   1_554  S
N236        C243   1.351       .  A
N237        N238   1.321       .  A
N237       Mn253   2.204       .  S
N239        N240   1.322       .  A
N239       Mn264   2.206       .  S
N240        C244   1.351       .  A
N241        N242   1.321       .  A
N241       Mn358   2.202   1_554  S
C243        C305   1.436       .  S
C244        C303   1.438       .  S
N245        N251   1.316       .  A
N245        N246   1.322       .  A
N245       Mn275   2.207       .  S
N246        C254   1.352       .  A
N247        N668   1.321       .  A
N247        N249   1.316       .  A
N247       Mn778   2.205   1_554  S
N248        C675   1.350   1_455  A
N248        N667   1.320   1_455  A
N249        N250   1.319       .  A
N249       Mn380   2.195   1_554  S
N250        C255   1.349       .  A
N251        N672   1.319       .  A
N251       Mn673   2.196       .  S
N252        C674   1.349   1_455  A
N252        N671   1.320   1_455  A
Mn253       N346   2.202       .  S
Mn253       N772   2.201   1_455  S
Mn253       N671   2.198   1_455  S
Mn253      Cl487   2.548   1_465  S
C254        N672   1.349       .  A
C254        C281   1.435       .  S
C255        N668   1.352       .  A
C255        C282   1.434       .  S
N256        N677   1.319       .  A
N256        N262   1.316       .  A
N256       Mn684   2.195       .  S
N257        C685   1.350   1_455  A
N257        N676   1.320   1_455  A
N258        N260   1.316       .  A
N258        N259   1.319       .  A
N258       Mn381   2.196       .  S
N259        C266   1.349       .  A
N260        N681   1.322       .  A
N260       Mn789   2.207   1_554  S
N261        C686   1.351   1_455  A
N261        N680   1.321   1_455  A
N262        N263   1.321       .  A
N262       Mn276   2.205       .  S
N263        C265   1.352       .  A
Mn264       N340   2.202       .  S
Mn264       N676   2.198   1_455  S
Mn264       N785   2.204   1_455  S
Mn264      Cl697   2.549   1_455  S
C265        N677   1.349       .  A
C265        C285   1.434       .  S
C266        N681   1.352       .  A
C266        C287   1.435       .  S
N267        N268   1.321       .  A
N267       Mn380   2.204   1_554  S
N269        N270   1.320       .  A
N269       Mn276   2.197       .  S
N270        C279   1.350       .  A
N271        N272   1.319       .  A
N271       Mn275   2.196       .  S
N273        N274   1.321       .  A
N273       Mn381   2.203       .  S
N274        C278   1.351       .  A
Mn275       N354   2.195       .  S
Mn275       N372   2.204       .  S
Mn276       N363   2.196       .  S
Mn276       N378   2.203       .  S
Mn276      Cl277   2.547       .  S
Cl277      Mn463   2.547       .  S
Cl277      Mn684   2.548       .  S
C278        C300   1.436       .  S
C279        C299   1.431       .  S
C280        C281   1.205       .  T
C282        C283   1.204       .  T
C284        C285   1.204       .  T
C286        C287   1.205       .  T
C288        C289   1.403       .  A
C288        C293   1.398       .  A
C288        H294   1.083       .  S
C289        C710   1.403       .  A
C290        C709   1.405       .  A
C290        C291   1.397       .  A
C290        H295   1.083   1_655  S
C291        C712   1.405       .  A
C291        H296   1.083   1_655  S
C292        C711   1.403       .  A
C292        C293   1.403       .  A
C293        H297   1.083       .  S
C298        C299   1.203       .  T
C300        C301   1.206       .  T
C302        C303   1.207       .  T
C304        C305   1.206       .  T
C306        C311   1.398       .  A
C306        H312   1.083       .  S
C307        C308   1.407       .  A
C308        C309   1.399       .  A
C308        H313   1.082       .  S
C309        C310   1.406       .  A
C309        H314   1.082       .  S
C311        H315   1.082       .  S
C316        N317   1.362       .  A
C316        N321   1.361       .  A
C316        C412   1.486       .  S
C318        N319   1.356       .  A
C318        C407   1.438       .  S
N319        C320   1.356       .  A
C320        C409   1.436       .  S
C322        N323   1.362       .  A
C322        N327   1.360       .  A
C322        C415   1.485       .  S
N323        C324   1.358       .  A
C326        N327   1.355       .  A
C328        N329   1.359       .  A
C328        N333   1.359       .  A
C328        C394   1.471       .  S
N329        C330   1.357       .  A
C330        N331   1.356       .  A
C330        C391   1.434       .  S
N331        C332   1.356       .  A
C332        N333   1.356       .  A
C332        C389   1.433       .  S
C334        N335   1.359       .  A
C334        N339   1.359       .  A
C334        C397   1.471       .  S
N335        C336   1.356       .  A
C336        N337   1.356       .  A
C336        C388   1.433       .  S
N337        C338   1.356       .  A
C338        N339   1.357       .  A
C338        C385   1.434       .  S
N340        N341   1.321       .  A
N341        C348   1.351       .  A
N342        N343   1.321       .  A
N342       Mn358   2.204       .  S
N344        N345   1.322       .  A
N344       Mn369   2.206       .  S
N345        C349   1.351       .  A
N346        N347   1.321       .  A
C348        C410   1.436       .  S
C349        C408   1.438       .  S
N350        N356   1.316       .  A
N350        N351   1.322       .  A
N350       Mn380   2.207       .  S
N351        C359   1.352       .  A
N352        N773   1.321       .  A
N352        N354   1.316       .  A
N352       Mn673   2.205       .  S
N353        C780   1.350   1_455  A
N353        N772   1.320   1_455  A
N354        N355   1.319       .  A
N355        C360   1.349       .  A
N356        N777   1.319       .  A
N356       Mn778   2.196       .  S
N357        C779   1.349   1_455  A
N357        N776   1.320   1_455  A
Mn358       N667   2.201   1_456  S
Mn358       N776   2.198   1_455  S
Mn358      Cl592   2.548   1_465  S
C359        N777   1.349       .  A
C359        C386   1.435       .  S
C360        N773   1.352       .  A
C360        C387   1.434       .  S
N361        N782   1.319       .  A
N361        N367   1.316       .  A
N361       Mn789   2.195       .  S
N362        C790   1.350   1_455  A
N362        N781   1.320   1_455  A
N363        N365   1.316       .  A
N363        N364   1.319       .  A
N364        C371   1.349       .  A
N365        N786   1.322       .  A
N365       Mn684   2.206       .  S
N366        C791   1.351   1_455  A
N366        N785   1.321   1_455  A
N367        N368   1.321       .  A
N367       Mn381   2.205   1_556  S
N368        C370   1.352       .  A
Mn369       N781   2.198   1_455  S
Mn369       N680   2.204   1_456  S
Mn369      Cl802   2.549   1_455  S
C370        N782   1.349       .  A
C370        C390   1.434       .  S
C371        N786   1.352       .  A
C371        C392   1.435       .  S
N372        N373   1.321       .  A
N374        N375   1.320       .  A
N374       Mn381   2.197   1_556  S
N375        C384   1.350       .  A
N376        N377   1.319       .  A
N376       Mn380   2.196       .  S
N378        N379   1.321       .  A
N379        C383   1.351       .  A
Mn381      Cl382   2.547   1_554  S
Cl382      Mn568   2.547       .  S
Cl382      Mn789   2.548       .  S
C383        C405   1.436       .  S
C384        C404   1.431       .  S
C385        C386   1.205       .  T
C387        C388   1.204       .  T
C389        C390   1.204       .  T
C391        C392   1.205       .  T
C393        C394   1.403       .  A
C393        C398   1.398       .  A
C393        H399   1.083       .  S
C394        C815   1.403       .  A
C395        C814   1.405       .  A
C395        C396   1.397       .  A
C395        H400   1.083   1_655  S
C396        C817   1.405       .  A
C396        H401   1.083   1_655  S
C397        C816   1.403       .  A
C397        C398   1.403       .  A
C398        H402   1.083       .  S
C403        C404   1.203       .  T
C405        C406   1.206       .  T
C407        C408   1.207       .  T
C409        C410   1.206       .  T
C411        C416   1.398       .  A
C411        H417   1.083       .  S
C412        C413   1.407       .  A
C413        C414   1.399       .  A
C413        H418   1.082       .  S
C414        C415   1.406       .  A
C414        H419   1.082       .  S
C416        H420   1.082       .  S
C421        N422   1.362       .  A
C421        N426   1.360       .  A
C421        C517   1.485       .  S
N422        C633   1.358       .  A
C423        N632   1.358       .  A
C423        N424   1.355       .  A
C423        C512   1.436       .  S
N424        C425   1.355       .  A
C425        N636   1.355       .  A
C425        C514   1.431       .  S
N426        C635   1.355       .  A
C427        N428   1.362       .  A
C427        N432   1.361       .  A
C427        C520   1.486       .  S
N428        C429   1.358       .  A
C429        N640   1.356       .  A
C429        C721   1.438       .  S
N430        C639   1.356       .  A
N430        C641   1.356       .  A
C431        N640   1.356       .  A
C431        N432   1.357       .  A
C431        C718   1.435       .  S
C433        N434   1.360       .  A
C433        N438   1.360       .  A
C433        C499   1.478       .  S
N434        C435   1.356       .  A
C435        N436   1.355       .  A
C435        C496   1.433       .  S
N436        C437   1.355       .  A
C437        N438   1.356       .  A
C437        C494   1.432       .  S
C439        N440   1.360       .  A
C439        N444   1.360       .  A
C439        C502   1.478       .  S
N440        C441   1.356       .  A
C441        N442   1.355       .  A
C441        C493   1.432       .  S
N442        C443   1.355       .  A
C443        N444   1.356       .  A
C443        C490   1.433       .  S
N445        N446   1.319       .  A
N445        N661   1.316   1_545  A
N445       Mn579   2.196   1_554  S
N446        C453   1.350       .  A
N447        N659   1.316       .  A
N447        N448   1.321       .  A
N447       Mn463   2.203       .  S
N448        C664   1.351       .  A
N449        N657   1.316   1_545  A
N449        N450   1.321       .  A
N449       Mn474   2.205       .  S
N450        C454   1.351       .  A
N451        N655   1.316       .  A
N451        N452   1.320       .  A
N451       Mn568   2.197   1_554  S
N452        C663   1.350       .  A
C453        N662   1.350   1_545  A
C453        C515   1.431       .  S
C454        N658   1.351   1_545  A
C454        C513   1.436       .  S
N455        N461   1.316       .  A
N455        N456   1.321       .  A
N455       Mn485   2.203       .  S
N456        C464   1.351       .  A
N457        N459   1.316       .  A
N459        N460   1.320       .  A
N459       Mn590   2.198   1_554  S
N460        C465   1.350       .  A
Mn463       N556   2.197       .  S
C464        C491   1.433       .  S
C465        C492   1.432       .  S
N466        N472   1.316       .  A
N468        N470   1.316       .  A
N468        N469   1.320       .  A
N468       Mn591   2.198   1_554  S
N469        C476   1.349       .  A
N472        N473   1.320       .  A
N472       Mn486   2.201       .  S
N473        C475   1.350       .  A
Mn474       N550   2.196       .  S
C475        C495   1.432       .  S
C476        C497   1.433       .  S
N477        N478   1.321       .  A
N477        N693   1.316       .  A
N477       Mn590   2.206   1_554  S
N478        C698   1.351       .  A
N479        N480   1.321       .  A
N479        N691   1.316   1_545  A
N479       Mn486   2.202       .  S
N480        C489   1.351       .  A
N481        N689   1.316       .  A
N481        N482   1.321       .  A
N481       Mn485   2.201       .  S
N482        C699   1.351       .  A
N483        N687   1.316   1_545  A
N483        N484   1.321       .  A
N483       Mn591   2.204   1_554  S
N484        C488   1.351       .  A
Mn485       N564   2.198       .  S
Mn485       N582   2.206       .  S
Mn485      Cl697   2.549       .  S
Mn486       N573   2.198       .  S
Mn486       N588   2.204       .  S
Mn486      Cl487   2.548       .  S
Cl487      Mn695   2.549   1_545  S
C488        N688   1.351   1_545  A
C488        C510   1.438       .  S
C489        N692   1.351   1_545  A
C489        C509   1.436       .  S
C490        C491   1.204       .  T
C492        C493   1.204       .  T
C494        C495   1.204       .  T
C496        C497   1.204       .  T
C498        C499   1.405       .  A
C498        C503   1.397       .  A
C498        H504   1.083       .  S
C500        C501   1.398       .  A
C500        H505   1.083       .  S
C501        H506   1.083       .  S
C502        C503   1.405       .  A
C503        H507   1.083       .  S
C508        C641   1.435       .  S
C508        C509   1.206       .  T
C510        C511   1.207       .  T
C511        C639   1.438       .  S
C512        C513   1.206       .  T
C514        C515   1.203       .  T
C516        C727   1.406       .  A
C516        C521   1.399       .  A
C516        H522   1.082   1_545  S
C517        C726   1.406       .  A
C517        C518   1.407       .  A
C518        C519   1.398       .  A
C518        H523   1.082       .  S
C519        C520   1.406       .  A
C519        H524   1.083       .  S
C520        C731   1.407       .  A
C521        C730   1.407       .  A
C521        H525   1.082   1_545  S
C526        N527   1.362       .  A
C526        N531   1.360       .  A
C526        C622   1.485       .  S
N527        C738   1.358       .  A
C528        N737   1.358       .  A
C528        N529   1.355       .  A
C528        C617   1.436       .  S
N529        C530   1.355       .  A
C530        N741   1.355       .  A
C530        C619   1.431       .  S
N531        C740   1.355       .  A
C532        N533   1.362       .  A
C532        N537   1.361       .  A
C532        C625   1.486       .  S
N533        C534   1.358       .  A
C534        N745   1.356       .  A
C534        C826   1.438       .  S
N535        C744   1.356       .  A
N535        C746   1.356       .  A
C536        N745   1.356       .  A
C536        N537   1.357       .  A
C536        C823   1.435       .  S
C538        N539   1.360       .  A
C538        N543   1.360       .  A
C538        C604   1.478       .  S
N539        C540   1.356       .  A
C540        N541   1.355       .  A
C540        C601   1.433       .  S
N541        C542   1.355       .  A
C542        N543   1.356       .  A
C542        C599   1.432       .  S
C544        N545   1.360       .  A
C544        N549   1.360       .  A
C544        C607   1.478       .  S
N545        C546   1.356       .  A
C546        N547   1.355       .  A
C546        C598   1.432       .  S
N547        C548   1.355       .  A
C548        N549   1.356       .  A
C548        C595   1.433       .  S
N550        N551   1.319       .  A
N550        N766   1.316   1_545  A
N551        C558   1.350       .  A
N552        N764   1.316       .  A
N552        N553   1.321       .  A
N552       Mn568   2.203       .  S
N553        C769   1.351       .  A
N554        N762   1.316   1_545  A
N554        N555   1.321       .  A
N554       Mn579   2.205       .  S
N555        C559   1.351       .  A
N556        N760   1.316       .  A
N556        N557   1.320       .  A
N557        C768   1.350       .  A
C558        N767   1.350   1_545  A
C558        C620   1.431       .  S
C559        N763   1.351   1_545  A
C559        C618   1.436       .  S
N560        N566   1.316       .  A
N560        N561   1.321       .  A
N560       Mn590   2.203       .  S
N561        C569   1.351       .  A
N562        N564   1.316       .  A
N564        N565   1.320       .  A
N565        C570   1.350       .  A
C569        C596   1.433       .  S
C570        C597   1.432       .  S
N571        N577   1.316       .  A
N573        N575   1.316       .  A
N573        N574   1.320       .  A
N574        C581   1.349       .  A
N577        N578   1.320       .  A
N577       Mn591   2.201       .  S
N578        C580   1.350       .  A
C580        C600   1.432       .  S
C581        C602   1.433       .  S
N582        N583   1.321       .  A
N582        N798   1.316       .  A
N583        C803   1.351       .  A
N584        N585   1.321       .  A
N584        N796   1.316   1_545  A
N584       Mn591   2.202       .  S
N585        C594   1.351       .  A
N586        N794   1.316       .  A
N586        N587   1.321       .  A
N586       Mn590   2.201       .  S
N587        C804   1.351       .  A
N588        N792   1.316   1_545  A
N588        N589   1.321       .  A
N589        C593   1.351       .  A
Mn590      Cl802   2.549       .  S
Mn591      Cl592   2.548       .  S
Cl592      Mn800   2.549   1_545  S
C593        N793   1.351   1_545  A
C593        C615   1.438       .  S
C594        N797   1.351   1_545  A
C594        C614   1.436       .  S
C595        C596   1.204       .  T
C597        C598   1.204       .  T
C599        C600   1.204       .  T
C601        C602   1.204       .  T
C603        C604   1.405       .  A
C603        C608   1.397       .  A
C603        H609   1.083       .  S
C605        C606   1.398       .  A
C605        H610   1.083       .  S
C606        H611   1.083       .  S
C607        C608   1.405       .  A
C608        H612   1.083       .  S
C613        C746   1.435       .  S
C613        C614   1.206       .  T
C615        C616   1.207       .  T
C616        C744   1.438       .  S
C617        C618   1.206       .  T
C619        C620   1.203       .  T
C621        C832   1.406       .  A
C621        C626   1.399       .  A
C621        H627   1.082   1_545  S
C622        C831   1.406       .  A
C622        C623   1.407       .  A
C623        C624   1.398       .  A
C623        H628   1.082       .  S
C624        C625   1.406       .  A
C624        H629   1.083       .  S
C625        C836   1.407       .  A
C626        C835   1.407       .  A
C626        H630   1.082   1_545  S
C631        N632   1.362       .  A
C631        N636   1.360       .  A
C631        C727   1.485       .  S
C633        N634   1.355       .  A
C633        C722   1.436       .  S
N634        C635   1.355       .  A
C635        C724   1.431       .  S
C637        N638   1.362       .  A
C637        N642   1.361       .  A
C637        C730   1.486       .  S
N638        C639   1.358       .  A
C641        N642   1.357       .  A
C643        N644   1.360       .  A
C643        N648   1.360       .  A
C643        C709   1.478       .  S
N644        C645   1.356       .  A
C645        N646   1.355       .  A
C645        C706   1.433       .  S
N646        C647   1.355       .  A
C647        N648   1.356       .  A
C647        C704   1.432       .  S
C649        N650   1.360       .  A
C649        N654   1.360       .  A
C649        C712   1.478       .  S
N650        C651   1.356       .  A
C651        N652   1.355       .  A
C651        C703   1.432       .  S
N652        C653   1.355       .  A
C653        N654   1.356       .  A
C653        C700   1.433       .  S
N655        N656   1.319       .  A
N655       Mn789   2.196   1_554  S
N656        C663   1.350       .  A
N657        N658   1.321       .  A
N657       Mn673   2.203       .  S
N659        N660   1.321       .  A
N659       Mn684   2.205       .  S
N660        C664   1.351       .  A
N661        N662   1.320       .  A
N661       Mn778   2.197   1_554  S
C663        C725   1.431       .  S
C664        C723   1.436       .  S
N665        N671   1.316       .  A
N665        N666   1.321       .  A
N665       Mn695   2.203       .  S
N666        C674   1.351       .  A
N667        N669   1.316       .  A
N669        N670   1.320       .  A
N669       Mn800   2.198   1_554  S
N670        C675   1.350       .  A
Mn673       N766   2.197       .  S
C674        C701   1.433       .  S
C675        C702   1.432       .  S
N676        N682   1.316       .  A
N678        N680   1.316       .  A
N678        N679   1.320       .  A
N678       Mn801   2.198   1_554  S
N679        C686   1.349       .  A
N682        N683   1.320       .  A
N682       Mn696   2.201       .  S
N683        C685   1.350       .  A
Mn684       N760   2.196       .  S
C685        C705   1.432       .  S
C686        C707   1.433       .  S
N687        N688   1.321       .  A
N687       Mn800   2.206   1_554  S
N689        N690   1.321       .  A
N689       Mn696   2.202       .  S
N690        C699   1.351       .  A
N691        N692   1.321       .  A
N691       Mn695   2.201       .  S
N693        N694   1.321       .  A
N693       Mn801   2.204   1_554  S
N694        C698   1.351       .  A
Mn695       N774   2.198       .  S
Mn695       N792   2.206       .  S
Mn696       N783   2.198       .  S
Mn696       N798   2.204       .  S
Mn696      Cl697   2.548       .  S
C698        C720   1.438       .  S
C699        C719   1.436       .  S
C700        C701   1.204       .  T
C702        C703   1.204       .  T
C704        C705   1.204       .  T
C706        C707   1.204       .  T
C708        C709   1.405       .  A
C708        C713   1.397       .  A
C708        H714   1.083       .  S
C710        C711   1.398       .  A
C710        H715   1.083       .  S
C711        H716   1.083       .  S
C712        C713   1.405       .  A
C713        H717   1.083       .  S
C718        C719   1.206       .  T
C720        C721   1.207       .  T
C722        C723   1.206       .  T
C724        C725   1.203       .  T
C726        C731   1.399       .  A
C726        H732   1.082       .  S
C727        C728   1.407       .  A
C728        C729   1.398       .  A
C728        H733   1.082       .  S
C729        C730   1.406       .  A
C729        H734   1.083       .  S
C731        H735   1.082       .  S
C736        N737   1.362       .  A
C736        N741   1.360       .  A
C736        C832   1.485       .  S
C738        N739   1.355       .  A
C738        C827   1.436       .  S
N739        C740   1.355       .  A
C740        C829   1.431       .  S
C742        N743   1.362       .  A
C742        N747   1.361       .  A
C742        C835   1.486       .  S
N743        C744   1.358       .  A
C746        N747   1.357       .  A
C748        N749   1.360       .  A
C748        N753   1.360       .  A
C748        C814   1.478       .  S
N749        C750   1.356       .  A
C750        N751   1.355       .  A
C750        C811   1.433       .  S
N751        C752   1.355       .  A
C752        N753   1.356       .  A
C752        C809   1.432       .  S
C754        N755   1.360       .  A
C754        N759   1.360       .  A
C754        C817   1.478       .  S
N755        C756   1.356       .  A
C756        N757   1.355       .  A
C756        C808   1.432       .  S
N757        C758   1.355       .  A
C758        N759   1.356       .  A
C758        C805   1.433       .  S
N760        N761   1.319       .  A
N761        C768   1.350       .  A
N762        N763   1.321       .  A
N762       Mn778   2.203       .  S
N764        N765   1.321       .  A
N764       Mn789   2.205       .  S
N765        C769   1.351       .  A
N766        N767   1.320       .  A
C768        C830   1.431       .  S
C769        C828   1.436       .  S
N770        N776   1.316       .  A
N770        N771   1.321       .  A
N770       Mn800   2.203       .  S
N771        C779   1.351       .  A
N772        N774   1.316       .  A
N774        N775   1.320       .  A
N775        C780   1.350       .  A
C779        C806   1.433       .  S
C780        C807   1.432       .  S
N781        N787   1.316       .  A
N783        N785   1.316       .  A
N783        N784   1.320       .  A
N784        C791   1.349       .  A
N787        N788   1.320       .  A
N787       Mn801   2.201       .  S
N788        C790   1.350       .  A
C790        C810   1.432       .  S
C791        C812   1.433       .  S
N792        N793   1.321       .  A
N794        N795   1.321       .  A
N794       Mn801   2.202       .  S
N795        C804   1.351       .  A
N796        N797   1.321       .  A
N796       Mn800   2.201       .  S
N798        N799   1.321       .  A
N799        C803   1.351       .  A
Mn801      Cl802   2.548       .  S
C803        C825   1.438       .  S
C804        C824   1.436       .  S
C805        C806   1.204       .  T
C807        C808   1.204       .  T
C809        C810   1.204       .  T
C811        C812   1.204       .  T
C813        C814   1.405       .  A
C813        C818   1.397       .  A
C813        H819   1.083       .  S
C815        C816   1.398       .  A
C815        H820   1.083       .  S
C816        H821   1.083       .  S
C817        C818   1.405       .  A
C818        H822   1.083       .  S
C823        C824   1.206       .  T
C825        C826   1.207       .  T
C827        C828   1.206       .  T
C829        C830   1.203       .  T
C831        C836   1.399       .  A
C831        H837   1.082       .  S
C832        C833   1.407       .  A
C833        C834   1.398       .  A
C833        H838   1.082       .  S
C834        C835   1.406       .  A
C834        H839   1.083       .  S
C836        H840   1.082       .  S
