geometry optimzed in LAMMPS
_audit_creation_date              2020-11-30 
_audit_creation_method            'lammps2cif' 
_symmetry_space_group_name_H-M    'P1' 
_symmetry_Int_Tables_number       1 
_symmetry_cell_setting            triclinic 
loop_ 
_symmetry_equiv_pos_as_xyz 
  x,y,z 
_cell_length_a                    37.56788233 
_cell_length_b                    37.65909079525065 
_cell_length_c                    52.14152239953645 
_cell_angle_alpha                 90.44325006505802 
_cell_angle_beta                  89.79064485764539 
_cell_angle_gamma                 119.53283439312753 
loop_ 
_atom_site_label 
_atom_site_type_symbol 
_atom_site_fract_x 
_atom_site_fract_y 
_atom_site_fract_z 
_atom_site_charge 
C1          C  0.00227790  0.00340940  0.72591522     0.45200
H2          H  0.00232411  0.00249955  0.70460536    -0.03900
C3          C  0.00153639  0.00493974  0.77588484     0.45200
H4          H  0.00111936  0.00553919  0.79719193    -0.03900
C5          C  0.00137655  0.04069045  0.73706516    -0.17600
C6          C  0.96530205  0.96666796  0.73782506    -0.17300
C7          C  0.03976584  0.00423277  0.73816498    -0.17700
C8          C  0.00129454  0.04171774  0.76345146    -0.17700
C9          C  0.96476822  0.96726770  0.76412968    -0.17200
C10         C  0.03921412  0.00464002  0.76457591    -0.17600
Zn11       Zn  0.71902580  0.37386593  0.00257038     1.49700
Zn12       Zn  0.62428505  0.34248019  0.99929553     1.49400
Zn13       Zn  0.65578951  0.27828648  0.99988135     1.49100
Zn14       Zn  0.66306647  0.32921718  0.05007442     1.49500
O15         O  0.66553439  0.33090305  0.01280801    -1.84400
O16         O  0.71513610  0.41634078  0.98156669    -0.75100
O17         O  0.58838945  0.29984171  0.97368591    -0.74900
O18         O  0.70164041  0.28544793  0.97662130    -0.74400
O19         O  0.64905079  0.39715741  0.98188773    -0.75100
O20         O  0.74733485  0.35117830  0.98110952    -0.74700
O21         O  0.60421049  0.25075620  0.97873968    -0.75300
O22         O  0.66840697  0.28193628  0.06347269    -0.74600
O23         O  0.58667399  0.33936629  0.02749631    -0.75400
O24         O  0.65442010  0.24239747  0.02889505    -0.74800
O25         O  0.60906519  0.32216257  0.06209723    -0.75300
O26         O  0.70865904  0.38108144  0.06536214    -0.75200
O27         O  0.75311324  0.40419891  0.03312288    -0.75000
C28         C  0.68575656  0.42236160  0.97554746     0.76800
C29         C  0.58233197  0.26417687  0.96862669     0.77300
C30         C  0.73639187  0.31603991  0.97159104     0.76300
C31         C  0.66231804  0.24886876  0.05279481     0.76700
C32         C  0.58280507  0.32874059  0.05092130     0.77800
C33         C  0.74369227  0.40624613  0.05636697     0.76800
C34         C  0.74662233  0.73664499  0.86813558     0.79900
N35         N  0.71196640  0.73694290  0.87580850    -0.78400
C36         C  0.68311606  0.70563401  0.88988635     0.82400
N37         N  0.68889518  0.67393878  0.89586854    -0.78300
C38         C  0.72297661  0.67318607  0.88843766     0.82500
N39         N  0.75205261  0.70462638  0.87469916    -0.80000
Zn40       Zn  0.37745878  0.71706654  0.98545749     1.49700
Zn41       Zn  0.33576186  0.62017450  0.98170287     1.49400
Zn42       Zn  0.32895587  0.66202764  0.03315856     1.49100
Zn43       Zn  0.28024672  0.66300809  0.98346310     1.49500
O44         O  0.33049855  0.66555309  0.99581620    -1.84400
O45         O  0.41582695  0.70759180  0.96333985    -0.75100
O46         O  0.32685796  0.57877326  0.00906223    -0.74900
O47         O  0.38122111  0.70572413  0.04896586    -0.74400
O48         O  0.39094493  0.64051029  0.96453643    -0.75100
O49         O  0.41162054  0.74721280  0.01618819    -0.74700
O50         O  0.31993418  0.60750473  0.04466631    -0.75300
O51         O  0.24534401  0.66318667  0.01312806    -0.74600
O52         O  0.29142714  0.58885471  0.95596837    -0.75400
O53         O  0.28274034  0.66833315  0.04734813    -0.74800
O54         O  0.24915426  0.61409661  0.95997210    -0.75300
O55         O  0.29279639  0.71302396  0.96326933    -0.75200
O56         O  0.36023896  0.75233655  0.96594246    -0.75000
C57         C  0.41870599  0.67609796  0.95791915     0.76800
C58         C  0.31987276  0.57762772  0.03305771     0.77300
C59         C  0.41071789  0.73816173  0.03976900     0.76300
C60         C  0.25147297  0.66737804  0.03727858     0.76700
C61         C  0.25831325  0.58843645  0.95022835     0.77800
C62         C  0.32541201  0.74611851  0.95830252     0.76800
C63         C  0.25761734  0.26320824  0.13945048     0.79900
N64         N  0.29503446  0.26594116  0.13731703    -0.78400
C65         C  0.32753515  0.30056254  0.12848305     0.82400
N66         N  0.32241124  0.33241186  0.12193261    -0.78300
C67         C  0.28544623  0.33015206  0.12359426     0.82500
N68         N  0.25271896  0.29526953  0.13213798    -0.80000
C69         C  0.27534068  0.01219424  0.86038731     0.79900
N70         N  0.30894379  0.04944062  0.86432831    -0.78400
C71         C  0.34381397  0.05227710  0.87378253     0.82400
N72         N  0.34474498  0.01793175  0.87992186    -0.78300
C73         C  0.31141258  0.98060551  0.87676326     0.82500
N74         N  0.27668444  0.97780167  0.86678544    -0.80000
C75         C  0.00011997  0.72193563  0.15253920     0.79900
N76         N  0.96487031  0.68541441  0.15037429    -0.78400
C77         C  0.96614774  0.65141472  0.14278553     0.82400
N78         N  0.00270761  0.65431382  0.13719473    -0.78300
C79         C  0.03783469  0.69041086  0.13874917     0.82500
N80         N  0.03646024  0.72428682  0.14626965    -0.80000
C81         C  0.99433261  0.27621837  0.85298630     0.79900
N82         N  0.02908237  0.31281524  0.85653832    -0.78400
C83         C  0.02704144  0.34505179  0.86688170     0.82400
N84         N  0.99006795  0.34027352  0.87357916    -0.78300
C85         C  0.95545608  0.30403454  0.87044324     0.82500
N86         N  0.95764698  0.27193717  0.86033431    -0.80000
C87         C  0.71752595  0.98905269  0.15056814     0.79900
N88         N  0.68463520  0.95210614  0.14483603    -0.78400
C89         C  0.64902871  0.94941032  0.13703857     0.82400
N90         N  0.64660804  0.98381497  0.13435883    -0.78300
C91         C  0.67922410  0.02106243  0.13928738     0.82500
N92         N  0.71481672  0.02361112  0.14747978    -0.80000
Zn93       Zn  0.66008510  0.28085856  0.51870983     1.49700
Zn94       Zn  0.61563779  0.33517607  0.52146570     1.49400
Zn95       Zn  0.71320816  0.37804445  0.51998550     1.49100
Zn96       Zn  0.66196590  0.33280603  0.47062496     1.49500
O97         O  0.66252285  0.33162068  0.50790338    -1.84400
O98         O  0.60996920  0.24731511  0.54045108    -0.75100
O99         O  0.63426564  0.38613040  0.54369962    -0.74900
O100        O  0.74919370  0.35988616  0.53748828    -0.74400
O101        O  0.58108038  0.28644138  0.54332790    -0.75100
O102        O  0.71003707  0.29248113  0.53891049    -0.74700
O103        O  0.70170915  0.41181501  0.54468537    -0.75300
O104        O  0.70709931  0.38502956  0.45664977    -0.74600
O105        O  0.57795721  0.33232161  0.49260983    -0.75400
O106        O  0.74413572  0.41616202  0.49114344    -0.74800
O107        O  0.60943683  0.32676193  0.45794039    -0.75300
O108        O  0.66742747  0.28716535  0.45515683    -0.75200
O109        O  0.66094321  0.24772021  0.48826252    -0.75000
C110        C  0.58168733  0.25382823  0.54871724     0.76800
C111        C  0.66971855  0.41281930  0.55159220     0.77300
C112        C  0.74337845  0.32488347  0.54401859     0.76300
C113        C  0.73756493  0.41524095  0.46715321     0.76700
C114        C  0.57918325  0.32740559  0.46844397     0.77800
C115        C  0.66564799  0.25516235  0.46432095     0.76800
C116        C  0.73650748  0.73898126  0.63786939     0.79900
N117        N  0.70940022  0.74627302  0.62474187    -0.78400
C118        C  0.67801677  0.71538465  0.61172365     0.82400
N119        N  0.67395455  0.67772467  0.61200428    -0.78300
C120        C  0.70029497  0.66982764  0.62497975     0.82500
N121        N  0.73189543  0.70068028  0.63789295    -0.80000
Zn122      Zn  0.33789456  0.71850458  0.47606928     1.49700
Zn123      Zn  0.34174940  0.66756913  0.52381170     1.49400
Zn124      Zn  0.28835755  0.62165422  0.47427456     1.49100
Zn125      Zn  0.38473551  0.66834612  0.47119951     1.49500
O126        O  0.33807714  0.66905950  0.48645693    -1.84400
O127        O  0.33108852  0.74697977  0.50702661    -0.75100
O128        O  0.30072576  0.61170162  0.53703666    -0.74900
O129        O  0.24947865  0.63779275  0.45834655    -0.74400
O130        O  0.32939494  0.70909882  0.54003796    -0.75100
O131        O  0.28922332  0.70476321  0.45382654    -0.74700
O132        O  0.26142093  0.58168980  0.50301099    -0.75300
O133        O  0.36829457  0.61681014  0.45102809    -0.74600
O134        O  0.39868264  0.68067771  0.53492367    -0.75400
O135        O  0.30105650  0.59071180  0.44757191    -0.74800
O136        O  0.42610521  0.67643628  0.49803554    -0.75300
O137        O  0.41414636  0.71529216  0.44731110    -0.75200
O138        O  0.38839782  0.75605974  0.45556373    -0.75000
C139        C  0.32660736  0.73893997  0.53091673     0.76800
C140        C  0.27040057  0.58113844  0.52650024     0.77300
C141        C  0.25560769  0.67203619  0.44989097     0.76300
C142        C  0.33384301  0.59035896  0.44185134     0.76700
C143        C  0.42858038  0.68255855  0.52217457     0.77800
C144        C  0.41424372  0.74880259  0.44415410     0.76800
C145        C  0.26731114  0.98775205  0.64513918     0.79900
N146        N  0.30317783  0.02200758  0.63933836    -0.78400
C147        C  0.33474187  0.01904788  0.62876110     0.82400
N148        N  0.33022826  0.98164591  0.62423755    -0.78300
C149        C  0.29486869  0.94731512  0.62966475     0.82500
N150        N  0.26311171  0.95030808  0.63988124    -0.80000
C151        C  0.01431117  0.27174875  0.63286658     0.79900
N152        N  0.05178221  0.30319415  0.62636277    -0.78400
C153        C  0.05496498  0.33661816  0.61456495     0.82400
N154        N  0.02074294  0.33828614  0.60888063    -0.78300
C155        C  0.98317402  0.30699845  0.61465169     0.82500
N156        N  0.98007837  0.27377357  0.62681317    -0.80000
C157        C  0.98729209  0.72542230  0.36057060     0.79900
N158        N  0.02269330  0.72416833  0.36349748    -0.78400
C159        C  0.02170367  0.68925027  0.37112295     0.82400
N160        N  0.98517319  0.65573626  0.37587405    -0.78300
C161        C  0.94981704  0.65669283  0.37349720     0.82500
N162        N  0.95091664  0.69166077  0.36603440    -0.80000
C163        C  0.27575891  0.27048249  0.35052559     0.79900
N164        N  0.27688890  0.30715079  0.35225130    -0.78400
C165        C  0.31149633  0.34093407  0.36021484     0.82400
N166        N  0.34454824  0.33766557  0.36685935    -0.78300
C167        C  0.34355000  0.30127747  0.36589672     0.82500
N168        N  0.30905471  0.26759806  0.35774427    -0.80000
C169        C  0.71984228  0.01071274  0.34206165     0.79900
N170        N  0.72129999  0.04657513  0.34831284    -0.78400
C171        C  0.68699029  0.04703900  0.35607890     0.82400
N172        N  0.65131950  0.01144617  0.35789635    -0.78300
C173        C  0.64947130  0.97540941  0.35231947     0.82500
N174        N  0.68390642  0.97509912  0.34457311    -0.80000
C175        C  0.99553708  0.99525848  0.22687649     0.45200
H176        H  0.99502837  0.99347369  0.20558184    -0.03900
C177        C  0.99719438  0.00001837  0.27687660     0.45200
H178        H  0.99791166  0.00229856  0.29814908    -0.03900
C179        C  0.95902096  0.99711236  0.23844281    -0.17600
C180        C  0.99552610  0.95892955  0.24000445    -0.17300
C181        C  0.03309964  0.03294866  0.23759120    -0.17700
C182        C  0.96003268  0.00019594  0.26475953    -0.17700
C183        C  0.99579328  0.96109710  0.26640122    -0.17200
C184        C  0.03430683  0.03539979  0.26383255    -0.17600
C185        C  0.87694723  0.98184768  0.31280760    -0.11100
C186        C  0.86491854  0.00993443  0.30463732     0.06000
C187        C  0.88688862  0.03696637  0.28475071    -0.09900
C188        C  0.91908565  0.03503487  0.27272786    -0.11500
C189        C  0.92957648  0.00555766  0.27995683    -0.01300
C190        C  0.90918125  0.97980017  0.30059941    -0.10400
C191        C  0.82857326  0.01012080  0.31584031     0.06000
H192        H  0.87829918  0.05872623  0.27782775     0.08000
H193        H  0.93506678  0.05581971  0.25718376     0.11400
H194        H  0.91712087  0.95709964  0.30658365     0.11700
H195        H  0.86105666  0.96110571  0.32837797     0.08000
C196        C  0.79271412  0.97329138  0.32113305    -0.11100
C197        C  0.75750503  0.97343158  0.32980900    -0.10400
C198        C  0.75739577  0.01042325  0.33347211    -0.01300
C199        C  0.79353281  0.04725657  0.32865423    -0.11500
C200        C  0.82865894  0.04709463  0.31995029    -0.09900
H201        H  0.79147584  0.94428112  0.31784499     0.08000
H202        H  0.73026390  0.94448800  0.33340450     0.11700
H203        H  0.79465083  0.07632675  0.33133775     0.11400
H204        H  0.85593602  0.07601044  0.31635897     0.08000
C205        C  0.10549482  0.13982784  0.29156549    -0.11100
C206        C  0.13394965  0.13282900  0.30493369     0.06000
C207        C  0.12842901  0.09302573  0.30509439    -0.09900
C208        C  0.09581105  0.06133715  0.29185343    -0.11500
C209        C  0.06792265  0.06869960  0.27844461    -0.01300
C210        C  0.07265896  0.10797537  0.27859025    -0.10400
C211        C  0.16978971  0.16710750  0.31796566     0.06000
H212        H  0.14929711  0.08629467  0.31544871    -0.09800
H213        H  0.09279939  0.03125677  0.29167578     0.11400
H214        H  0.05110977  0.11403804  0.26849222     0.11700
H215        H  0.10902196  0.17009678  0.29063642     0.08000
C216        C  0.16645937  0.19909925  0.32974962    -0.11100
C217        C  0.20072443  0.23243672  0.34061847    -0.10400
C218        C  0.23897091  0.23425562  0.34032865    -0.01300
C219        C  0.24212827  0.20179023  0.32928243    -0.11500
C220        C  0.20804277  0.16877803  0.31805967    -0.09900
H221        H  0.13735884  0.19846358  0.33055812     0.08000
H222        H  0.19727127  0.25682036  0.34924996     0.11700
H223        H  0.27127802  0.20248549  0.32857201     0.11400
H224        H  0.21203130  0.14514725  0.30880390     0.08000
C225        C  0.02574779  0.83112071  0.33296133    -0.11100
C226        C  0.98895069  0.83108647  0.32816064     0.06000
C227        C  0.95190698  0.79726289  0.33575810    -0.09900
C228        C  0.95149485  0.76352464  0.34700587    -0.11500
C229        C  0.98815069  0.76276498  0.35085700    -0.01300
C230        C  0.02535995  0.79730764  0.34416225    -0.10400
C231        C  0.98899843  0.86493426  0.31375029     0.06000
H232        H  0.92312589  0.79666609  0.33265460     0.08000
H233        H  0.92228964  0.73766172  0.35212538     0.11400
H234        H  0.05418341  0.79786076  0.34692551     0.11700
H235        H  0.05474426  0.85662964  0.32712615     0.08000
C236        C  0.01842514  0.90579730  0.31875190    -0.11100
C237        C  0.01981380  0.93723650  0.30388816    -0.10400
C238        C  0.99238083  0.92826719  0.28349301    -0.01300
C239        C  0.96203607  0.88766181  0.27910389    -0.11500
C240        C  0.96042034  0.85629985  0.29401883    -0.09900
H241        H  0.04045160  0.91337815  0.33407335     0.08000
H242        H  0.04297313  0.96837475  0.30790121     0.11700
H243        H  0.93996630  0.88014842  0.26381318     0.11400
H244        H  0.93755711  0.82513325  0.28958293     0.08000
C245        C  0.19515989  0.47160779  0.54358054    -0.11100
C246        C  0.19368559  0.47379764  0.57042675     0.06000
C247        C  0.21919884  0.51110344  0.58284908    -0.09900
C248        C  0.24490858  0.54582106  0.56864035    -0.11500
C249        C  0.24507934  0.54402633  0.54171996    -0.01300
C250        C  0.22038712  0.50642186  0.52935770    -0.10400
C251        C  0.16246068  0.43847958  0.58501665     0.06000
H252        H  0.21867997  0.51352926  0.60353879     0.08000
H253        H  0.26374351  0.57433767  0.57868629     0.11400
H254        H  0.22021291  0.50400182  0.50864493     0.11700
H255        H  0.17546012  0.44335541  0.53350637     0.08000
C256        C  0.13722730  0.44426857  0.60249278    -0.11100
C257        C  0.10341439  0.41081450  0.61324456    -0.10400
C258        C  0.09474294  0.37101349  0.60720671    -0.01300
C259        C  0.12128467  0.36501388  0.59107340    -0.11500
C260        C  0.15475916  0.39857739  0.57981087    -0.09900
H261        H  0.14215560  0.47459582  0.60662224     0.08000
H262        H  0.08302323  0.41593106  0.62552349     0.11700
H263        H  0.11467881  0.33442746  0.58595314     0.11400
H264        H  0.17385721  0.39337302  0.56643074     0.08000
C265        C  0.35932917  0.51487411  0.41061439    -0.11100
C266        C  0.32471415  0.49167275  0.39513807     0.06000
C267        C  0.29407798  0.50276591  0.39414219    -0.09900
C268        C  0.29736764  0.53537949  0.40893701    -0.11500
C269        C  0.33159966  0.55787817  0.42476168    -0.01300
C270        C  0.36287362  0.54777387  0.42507455    -0.10400
C271        C  0.31971719  0.45455514  0.38164184     0.06000
H272        H  0.26734110  0.48598218  0.38215276     0.08000
H273        H  0.27295062  0.54277527  0.40816220     0.11400
H274        H  0.38943739  0.56434418  0.43725607     0.11700
H275        H  0.38311397  0.50673932  0.41236770     0.08000
C276        C  0.35409279  0.45334193  0.37202091    -0.11100
C277        C  0.35078251  0.41664018  0.36356077    -0.10400
C278        C  0.31291315  0.38044603  0.36406878    -0.01300
C279        C  0.27785096  0.38212216  0.37151868    -0.11500
C280        C  0.28125602  0.41883245  0.38040958    -0.09900
H281        H  0.38392983  0.48048817  0.37191485     0.08000
H282        H  0.37822764  0.41627847  0.35751581     0.11700
H283        H  0.24832359  0.35459812  0.37216657     0.11400
H284        H  0.25414670  0.41854580  0.38778416     0.08000
C285        C  0.29223800  0.81242349  0.55471621    -0.11100
C286        C  0.29927751  0.81336626  0.58119122     0.06000
C287        C  0.31479274  0.78919080  0.59116845    -0.09900
C288        C  0.32326579  0.76457818  0.57490324    -0.11500
C289        C  0.31717273  0.76440113  0.54830670    -0.01300
C290        C  0.30137913  0.78842258  0.53840969    -0.10400
C291        C  0.29422345  0.84260649  0.59777377     0.06000
H292        H  0.32064562  0.78963922  0.61152872     0.08000
H293        H  0.33532882  0.74632085  0.58306914     0.11400
H294        H  0.29605747  0.78866812  0.51802444     0.11700
H295        H  0.28093228  0.83132751  0.54653867     0.08000
C296        C  0.32705899  0.87024727  0.61301409    -0.11100
C297        C  0.32577518  0.90277040  0.62504644    -0.10400
C298        C  0.29136952  0.90786371  0.62244667    -0.01300
C299        C  0.25714342  0.87844580  0.60892740    -0.11500
C300        C  0.25874251  0.84620709  0.59640317    -0.09900
H301        H  0.35482818  0.86829805  0.61420360     0.08000
H302        H  0.35258217  0.92523579  0.63532027     0.11700
H303        H  0.23049930  0.88207291  0.60645269     0.11400
H304        H  0.23300740  0.82506437  0.58479644     0.08000
C305        C  0.48237814  0.84902848  0.41075833    -0.11100
C306        C  0.50768202  0.83918800  0.39582208     0.06000
C307        C  0.50075337  0.79897415  0.39626958    -0.09900
C308        C  0.47018915  0.76969870  0.41177544    -0.11500
C309        C  0.44541138  0.77972256  0.42701516    -0.01300
C310        C  0.45144112  0.81956075  0.42607202    -0.10400
C311        C  0.54250859  0.87124193  0.38101953     0.06000
H312        H  0.51904665  0.79004926  0.38468763     0.08000
H313        H  0.46609817  0.73915038  0.41187061     0.11400
H314        H  0.43293394  0.82825459  0.43764050     0.11700
H315        H  0.48724030  0.87984537  0.41129071     0.08000
C316        C  0.53961466  0.90357018  0.36982364    -0.11100
C317        C  0.57398485  0.93639251  0.35894509    -0.10400
C318        C  0.61179979  0.93727866  0.35863041    -0.01300
C319        C  0.61411216  0.90371388  0.36806934    -0.11500
C320        C  0.57991568  0.87118802  0.37936192    -0.09900
H321        H  0.51107553  0.90411236  0.37010145     0.08000
H322        H  0.57135452  0.96183277  0.35159198     0.11700
H323        H  0.64300027  0.90384246  0.36833459     0.11400
H324        H  0.58352943  0.84713174  0.38802591     0.08000
C325        C  0.20171016  0.70952046  0.40555774    -0.11100
C326        C  0.16052605  0.67951103  0.40872323     0.06000
C327        C  0.15110662  0.64663325  0.42525184    -0.09900
C328        C  0.18203831  0.64381065  0.43823956    -0.11500
C329        C  0.22303815  0.67413792  0.43536010    -0.01300
C330        C  0.23260906  0.70700416  0.41887199    -0.10400
C331        C  0.12722049  0.68293678  0.39567329     0.06000
H332        H  0.11969316  0.62347322  0.42866394     0.08000
H333        H  0.17375737  0.61838403  0.45103802     0.11400
H334        H  0.26404707  0.73067779  0.41614918     0.11700
H335        H  0.21011924  0.73491982  0.39273356     0.08000
C336        C  0.12934805  0.72109273  0.39278528    -0.11100
C337        C  0.09590044  0.72359290  0.38321313    -0.10400
C338        C  0.05959251  0.68796705  0.37664507    -0.01300
C339        C  0.05833720  0.65013171  0.37813650    -0.11500
C340        C  0.09181897  0.64767494  0.38737425    -0.09900
H341        H  0.15602760  0.74886993  0.39911443     0.08000
H342        H  0.09767551  0.75314976  0.38234131     0.11700
H343        H  0.03094998  0.62216555  0.37284517     0.11400
H344        H  0.08956457  0.61794317  0.38857795     0.08000
C345        C  0.50815907  0.70563968  0.57403698    -0.11100
C346        C  0.54235391  0.71250185  0.55928272     0.06000
C347        C  0.53900233  0.71060648  0.53243292    -0.09900
C348        C  0.50207685  0.70082321  0.52058341    -0.11500
C349        C  0.46752039  0.69297703  0.53524125    -0.01300
C350        C  0.47105727  0.69601490  0.56212082    -0.10400
C351        C  0.58029825  0.71797933  0.57161005     0.06000
H352        H  0.56494663  0.71630339  0.52053460     0.08000
H353        H  0.50066743  0.69936410  0.49982975     0.11400
H354        H  0.44504084  0.69033206  0.57393386     0.11700
H355        H  0.50971379  0.70639575  0.59478708     0.08000
C356        C  0.59672802  0.74234298  0.59374670    -0.11100
C357        C  0.63072638  0.74417773  0.60615096    -0.10400
C358        C  0.64814079  0.72117169  0.59673842    -0.01300
C359        C  0.63271288  0.69832450  0.57409034    -0.11500
C360        C  0.59930110  0.69676956  0.56168463    -0.09900
H361        H  0.58284026  0.75927011  0.60166854     0.08000
H362        H  0.64195228  0.76170466  0.62374089     0.11700
H363        H  0.64562975  0.68030755  0.56645153     0.11400
H364        H  0.58717218  0.67733709  0.54489760     0.08000
C365        C  0.80731251  0.28088677  0.57001922    -0.11100
C366        C  0.84162846  0.31590494  0.57969463     0.06000
C367        C  0.84237884  0.35358781  0.57861139    -0.09900
C368        C  0.81022851  0.35644197  0.56736789    -0.11500
C369        C  0.77634171  0.32157998  0.55723992    -0.01300
C370        C  0.77494363  0.28367426  0.55899830    -0.10400
C371        C  0.87745676  0.31365613  0.58963346     0.06000
H372        H  0.86801078  0.38102684  0.58633145     0.08000
H373        H  0.81203268  0.38600501  0.56648062     0.11400
H374        H  0.74932501  0.25627699  0.55120543     0.11700
H375        H  0.80602150  0.25153258  0.57021025     0.08000
C376        C  0.87255117  0.28005637  0.60402325    -0.11100
C377        C  0.90673672  0.27782343  0.61250040    -0.10400
C378        C  0.94645124  0.30920622  0.60677595    -0.01300
C379        C  0.95115094  0.34288029  0.59260293    -0.11500
C380        C  0.91717838  0.34498455  0.58407709    -0.09900
H381        H  0.84230388  0.25558501  0.60882490     0.08000
H382        H  0.90205053  0.25150355  0.62339638     0.11700
H383        H  0.98120727  0.36757113  0.58765689     0.11400
H384        H  0.92212669  0.37084903  0.57258488     0.08000
C385        C  0.65253161  0.11996110  0.37940980    -0.11100
C386        C  0.68553163  0.14619022  0.39505743     0.06000
C387        C  0.72116385  0.14289616  0.39510400    -0.09900
C388        C  0.72303279  0.11251365  0.38057035    -0.11500
C389        C  0.68891051  0.08447495  0.36631552    -0.01300
C390        C  0.65404760  0.08907859  0.36534405    -0.10400
C391        C  0.68142742  0.17481606  0.41263839     0.06000
H392        H  0.74702555  0.16307851  0.40696064     0.08000
H393        H  0.75008770  0.10930764  0.38182421     0.11400
H394        H  0.62734191  0.06773479  0.35451990     0.11700
H395        H  0.62473744  0.12196352  0.37917658     0.08000
C396        C  0.66852361  0.20148970  0.40341022    -0.11100
C397        C  0.66325767  0.22751590  0.42026292    -0.10400
C398        C  0.67001210  0.22669698  0.44670566    -0.01300
C399        C  0.68245445  0.19959234  0.45594795    -0.11500
C400        C  0.68846352  0.17411087  0.43900585    -0.09900
H401        H  0.66280991  0.20234065  0.38313788     0.08000
H402        H  0.65362953  0.24810277  0.41261964     0.11700
H403        H  0.68811815  0.19852034  0.47620310     0.11400
H404        H  0.69791721  0.15330792  0.44652002     0.08000
C405        C  0.47846384  0.19237978  0.58060518    -0.11100
C406        C  0.48125771  0.15933570  0.59069372     0.06000
C407        C  0.51849912  0.15912097  0.58824014    -0.09900
C408        C  0.55140310  0.19013311  0.57500361    -0.11500
C409        C  0.54809368  0.22246524  0.56430969    -0.01300
C410        C  0.51158416  0.22370342  0.56771485    -0.10400
C411        C  0.44475740  0.12397590  0.60212099     0.06000
H412        H  0.52213598  0.13469118  0.59629296     0.08000
H413        H  0.57931005  0.18859421  0.57294990     0.11400
H414        H  0.50804050  0.24817665  0.55961358     0.11700
H415        H  0.45018245  0.19334597  0.58176054     0.08000
C416        C  0.41547374  0.12915011  0.61613977    -0.11100
C417        C  0.37989111  0.09526724  0.62524352    -0.10400
C418        C  0.37307207  0.05558414  0.62067918    -0.01300
C419        C  0.40284194  0.05061483  0.60719702    -0.11500
C420        C  0.43797528  0.08424483  0.59793084    -0.09900
H421        H  0.41995712  0.15935622  0.62002291     0.08000
H422        H  0.35763390  0.10014619  0.63562998     0.11700
H423        H  0.39867386  0.02055361  0.60316060     0.11400
H424        H  0.45920658  0.07885866  0.58674407     0.08000
C425        C  0.51685049  0.31779137  0.40936615    -0.11100
C426        C  0.47839095  0.30646488  0.41994597     0.06000
C427        C  0.47313609  0.30234709  0.44664621    -0.09900
C428        C  0.50607092  0.30998295  0.46257649    -0.11500
C429        C  0.54461808  0.32125779  0.45198942    -0.01300
C430        C  0.54955812  0.32480132  0.42520245    -0.10400
C431        C  0.44464397  0.30194148  0.40335148     0.06000
H432        H  0.44377557  0.29414878  0.45519421     0.08000
H433        H  0.50128004  0.30667137  0.48310809     0.11400
H434        H  0.57885000  0.33329634  0.41644800     0.11700
H435        H  0.52153665  0.32121379  0.38882251     0.08000
C436        C  0.45097443  0.33371730  0.38681602    -0.11100
C437        C  0.41823123  0.33229973  0.37346034    -0.10400
C438        C  0.37872838  0.29870169  0.37599930    -0.01300
C439        C  0.37279965  0.26564251  0.39123033    -0.11500
C440        C  0.40551527  0.26747089  0.40508595    -0.09900
H441        H  0.48087792  0.36063538  0.38527228     0.08000
H442        H  0.42348443  0.35816012  0.36183999     0.11700
H443        H  0.34250154  0.23960371  0.39365059     0.11400
H444        H  0.40013620  0.24254177  0.41764630     0.08000
C445        C  0.87365649  0.54768076  0.38844536    -0.11100
C446        C  0.84703070  0.55251375  0.40522332     0.06000
C447        C  0.85132684  0.59150912  0.40868592    -0.09900
C448        C  0.88313060  0.62541525  0.39664664    -0.11500
C449        C  0.91141711  0.62080305  0.38138208    -0.01300
C450        C  0.90579584  0.58159708  0.37680828    -0.10400
C451        C  0.81744582  0.51760841  0.42073410     0.06000
H452        H  0.83088879  0.59589284  0.42135223     0.08000
H453        H  0.88715301  0.65546687  0.40058458     0.11400
H454        H  0.92733189  0.57743757  0.36507335     0.11700
H455        H  0.87114807  0.51801708  0.38554441     0.08000
C456        C  0.79393039  0.47882341  0.40955361    -0.11100
C457        C  0.76785706  0.44549357  0.42463793    -0.10400
C458        C  0.76537199  0.45025474  0.45122057    -0.01300
C459        C  0.78895357  0.48901127  0.46239560    -0.11500
C460        C  0.81454294  0.52242248  0.44726418    -0.09900
H461        H  0.79567412  0.47435085  0.38914482     0.08000
H462        H  0.74998879  0.41590042  0.41555698     0.11700
H463        H  0.78737977  0.49356594  0.48281266     0.11400
H464        H  0.83286167  0.55187820  0.45641328     0.08000
C465        C  0.71699682  0.51617862  0.58419672    -0.11100
C466        C  0.68366240  0.51416158  0.59775733     0.06000
C467        C  0.64623780  0.47714616  0.59748284    -0.09900
C468        C  0.64162626  0.44389656  0.58278642    -0.11500
C469        C  0.67460730  0.44662044  0.56853492    -0.01300
C470        C  0.71258870  0.48273050  0.56993138    -0.10400
C471        C  0.68664058  0.55176781  0.60941740     0.06000
H472        H  0.62012783  0.47412889  0.60815420     0.08000
H473        H  0.61219332  0.41623333  0.58237684     0.11400
H474        H  0.73860660  0.48579331  0.55909953     0.11700
H475        H  0.74603352  0.54422574  0.58351591     0.08000
C476        C  0.72358199  0.58282678  0.61995638    -0.11100
C477        C  0.72775436  0.62083866  0.62671033    -0.10400
C478        C  0.69502544  0.62829937  0.62303884    -0.01300
C479        C  0.65736906  0.59625297  0.61437225    -0.11500
C480        C  0.65329502  0.55868068  0.60752269    -0.09900
H481        H  0.74968304  0.57825959  0.62215615     0.08000
H482        H  0.75707312  0.64489896  0.63347890     0.11700
H483        H  0.63131299  0.60077168  0.61162295     0.11400
H484        H  0.62455708  0.53597920  0.59923516     0.08000
C485        C  0.85275979  0.96309347  0.21357473    -0.11100
C486        C  0.86024391  0.99298207  0.19510519     0.06000
C487        C  0.90083336  0.02308180  0.19004044    -0.09900
C488        C  0.93324444  0.02351683  0.20346486    -0.11500
C489        C  0.92538253  0.99439664  0.22244250    -0.01300
C490        C  0.88504302  0.96384340  0.22714058    -0.10400
C491        C  0.82546188  0.99294728  0.18175356     0.06000
H492        H  0.90741599  0.04623295  0.17575331     0.08000
H493        H  0.96429440  0.04729800  0.19965990     0.11400
H494        H  0.87854318  0.94104450  0.24168053     0.11700
H495        H  0.82178962  0.93977904  0.21804042     0.08000
C496        C  0.79275135  0.95615520  0.17271074    -0.11100
C497        C  0.75831585  0.95522970  0.16203390    -0.10400
C498        C  0.75563055  0.99109704  0.16020213    -0.01300
C499        C  0.78897224  0.02820903  0.16851904    -0.11500
C500        C  0.82359946  0.02912066  0.17915854    -0.09900
H501        H  0.79365426  0.92792949  0.17413471     0.08000
H502        H  0.73348582  0.92613390  0.15560362     0.11700
H503        H  0.78796440  0.05639554  0.16736861     0.11400
H504        H  0.84831348  0.05786870  0.18615972     0.08000
C505        C  0.03566534  0.82932154  0.17696637    -0.11100
C506        C  0.99856660  0.82758618  0.18355119     0.06000
C507        C  0.96168978  0.79162560  0.17830726    -0.09900
C508        C  0.96202636  0.75753984  0.16768391    -0.11500
C509        C  0.99926038  0.75880744  0.16195671    -0.01300
C510        C  0.03602688  0.79540725  0.16626365    -0.10400
C511        C  0.99857936  0.86232422  0.19720969     0.06000
H512        H  0.93263506  0.78933616  0.18330857     0.08000
H513        H  0.93312826  0.72994808  0.16448464     0.11400
H514        H  0.06527980  0.79768939  0.16191362     0.11700
H515        H  0.06453386  0.85685611  0.18039273     0.08000
C516        C  0.02648432  0.88231617  0.21726052    -0.11100
C517        C  0.02577584  0.91395050  0.23093678    -0.10400
C518        C  0.99695664  0.92605871  0.22499963    -0.01300
C519        C  0.96968803  0.90691982  0.20460346    -0.11500
C520        C  0.97029338  0.87510112  0.19090992    -0.09900
H521        H  0.04837237  0.87292899  0.22272854     0.08000
H522        H  0.04763242  0.92886284  0.24628399     0.11700
H523        H  0.94740860  0.91605489  0.19962336     0.11400
H524        H  0.94873375  0.86053051  0.17537763     0.08000
C525        C  0.15033156  0.18288436  0.15841653    -0.11100
C526        C  0.15821256  0.15821116  0.17498568     0.06000
C527        C  0.19893043  0.16734596  0.17858676    -0.09900
C528        C  0.23095646  0.20073172  0.16642081    -0.11500
C529        C  0.22316418  0.22620998  0.15064449    -0.01300
C530        C  0.18249989  0.21673079  0.14654222    -0.10400
C531        C  0.12456534  0.12455333  0.18960574     0.06000
H532        H  0.20631391  0.14958317  0.19153619     0.08000
H533        H  0.26200061  0.20738226  0.17011441     0.11400
H534        H  0.17555655  0.23555548  0.13423697     0.11700
H535        H  0.11930160  0.17626253  0.15476579     0.08000
C536        C  0.09177054  0.12889104  0.19908948    -0.11100
C537        C  0.06165254  0.09864044  0.21434063    -0.10400
C538        C  0.06412114  0.06391420  0.22071305    -0.01300
C539        C  0.09591437  0.05867656  0.21087147    -0.11500
C540        C  0.12589658  0.08871614  0.19535775    -0.09900
H541        H  0.08994361  0.15618409  0.19539163     0.08000
H542        H  0.03677528  0.10263315  0.22157479     0.11700
H543        H  0.09767849  0.03155892  0.21540543     0.11400
H544        H  0.15017858  0.08393223  0.18796355     0.08000
C545        C  0.13824024  0.42515895  0.87813399    -0.11100
C546        C  0.13395648  0.45653125  0.89010508     0.06000
C547        C  0.09465124  0.45200845  0.89216733    -0.09900
C548        C  0.06046693  0.41662084  0.88349951    -0.11500
C549        C  0.06437952  0.38434856  0.87275629    -0.01300
C550        C  0.10376574  0.38936593  0.86958416    -0.10400
C551        C  0.16931423  0.49225365  0.90244804     0.06000
H552        H  0.08984661  0.47498229  0.90163354     0.08000
H553        H  0.03070513  0.41408542  0.88615953     0.11400
H554        H  0.10788496  0.36522161  0.86122625     0.11700
H555        H  0.16813395  0.42789309  0.87582992     0.08000
C556        C  0.19952166  0.48746714  0.91529075    -0.11100
C557        C  0.22942163  0.51937249  0.92996643    -0.10400
C558        C  0.22940713  0.55654126  0.93248015    -0.01300
C559        C  0.20040006  0.56205026  0.91884701    -0.11500
C560        C  0.17099388  0.53043511  0.90374382    -0.09900
H561        H  0.19896589  0.45845824  0.91508411     0.08000
H562        H  0.25141732  0.51425966  0.94032648     0.11700
H563        H  0.20013174  0.59063682  0.92011991     0.11400
H564        H  0.14892255  0.53563073  0.89357545     0.08000
C565        C  0.31667610  0.43884322  0.10854408    -0.11100
C566        C  0.28649243  0.43425560  0.09097025     0.06000
C567        C  0.25291450  0.39510603  0.08652786    -0.09900
C568        C  0.25052860  0.36095565  0.09876517    -0.11500
C569        C  0.28210900  0.36558566  0.11514369    -0.01300
C570        C  0.31463921  0.40486460  0.12035197    -0.10400
C571        C  0.29206157  0.47013094  0.07625049     0.06000
H572        H  0.22914146  0.39088354  0.07314855     0.08000
H573        H  0.22543990  0.33084478  0.09425549     0.11400
H574        H  0.33944112  0.40909965  0.13284052     0.11700
H575        H  0.34304954  0.46853919  0.11215125     0.08000
C576        C  0.30511953  0.50774810  0.08870186    -0.11100
C577        C  0.31407581  0.54257477  0.07464557    -0.10400
C578        C  0.31067070  0.54066111  0.04778548    -0.01300
C579        C  0.29723170  0.50294313  0.03530979    -0.11500
C580        C  0.28774124  0.46792794  0.04944074    -0.09900
H581        H  0.30861611  0.51023101  0.10935552     0.08000
H582        H  0.32420518  0.57115966  0.08480295     0.11700
H583        H  0.29391548  0.50047725  0.01464623     0.11400
H584        H  0.27823073  0.43939174  0.03935801     0.08000
C585        C  0.28214673  0.87063032  0.89131849    -0.11100
C586        C  0.31612018  0.87607456  0.90574817     0.06000
C587        C  0.34851638  0.91583424  0.90982890    -0.09900
C588        C  0.34706009  0.94930812  0.89991722    -0.11500
C589        C  0.31296874  0.94413650  0.88579416    -0.01300
C590        C  0.28055062  0.90436727  0.88146059    -0.10400
C591        C  0.31765432  0.84096030  0.91742871     0.06000
H592        H  0.37471257  0.92128610  0.92130942     0.08000
H593        H  0.37251680  0.97943108  0.90388444     0.11400
H594        H  0.25391582  0.89933021  0.87061581     0.11700
H595        H  0.25683755  0.84031293  0.88763642     0.08000
C596        C  0.28258760  0.80873437  0.92856767    -0.11100
C597        C  0.28497708  0.77752449  0.94142318    -0.10400
C598        C  0.32254130  0.77805648  0.94360651    -0.01300
C599        C  0.35738501  0.80973618  0.93199869    -0.11500
C600        C  0.35490526  0.84065980  0.91890692    -0.09900
H601        H  0.25357430  0.80830858  0.92809085     0.08000
H602        H  0.25759217  0.75354184  0.95026040     0.11700
H603        H  0.38661978  0.81067971  0.93307320     0.11400
H604        H  0.38233172  0.86459019  0.91009294     0.08000
C605        C  0.17018795  0.69199195  0.05995361    -0.11100
C606        C  0.16920972  0.68485089  0.08640772     0.06000
C607        C  0.19494371  0.67131827  0.09656801    -0.09900
C608        C  0.22156825  0.66547415  0.08057148    -0.11500
C609        C  0.22236110  0.67229741  0.05404359    -0.01300
C610        C  0.19628055  0.68545982  0.04387769    -0.10400
C611        C  0.13965920  0.68931286  0.10300990     0.06000
H612        H  0.19459589  0.66552611  0.11690609     0.08000
H613        H  0.24135953  0.65534779  0.08894370     0.11400
H614        H  0.19644389  0.69124137  0.02355392     0.11700
H615        H  0.15015307  0.70188032  0.05165473     0.08000
C616        C  0.13543530  0.72431116  0.10163443    -0.11100
C617        C  0.10405425  0.72617571  0.11502346    -0.10400
C618        C  0.07597407  0.69268200  0.12948114    -0.01300
C619        C  0.08150422  0.65858457  0.13186032    -0.11500
C620        C  0.11331330  0.65707785  0.11893037    -0.09900
H621        H  0.15567558  0.74964946  0.08960382     0.08000
H622        H  0.10019101  0.75264704  0.11274809     0.11700
H623        H  0.06020107  0.63239274  0.14292399     0.11400
H624        H  0.11591655  0.62974847  0.12022187     0.08000
C625        C  0.54087999  0.86842429  0.12308694    -0.11100
C626        C  0.54706827  0.84532792  0.10416193     0.06000
C627        C  0.58704784  0.85330227  0.09886163    -0.09900
C628        C  0.62046515  0.88535668  0.11130040    -0.11500
C629        C  0.61431452  0.91035025  0.12873626    -0.01300
C630        C  0.57431656  0.90106349  0.13504128    -0.10400
C631        C  0.51246484  0.81642064  0.08801071     0.06000
H632        H  0.59244703  0.83572682  0.08438024     0.08000
H633        H  0.65114908  0.89237132  0.10598194     0.11400
H634        H  0.56906451  0.92017584  0.14839788     0.11700
H635        H  0.51035421  0.86296078  0.12737067     0.08000
C636        C  0.47538211  0.78727510  0.09901326    -0.11100
C637        C  0.44217345  0.76166670  0.08339407    -0.10400
C638        C  0.44531376  0.76539790  0.05654368    -0.01300
C639        C  0.48244380  0.79475493  0.04565843    -0.11500
C640        C  0.51572097  0.81979898  0.06122297    -0.09900
H641        H  0.47220680  0.78429920  0.11965623     0.08000
H642        H  0.41396628  0.73924559  0.09231961     0.11700
H643        H  0.48593183  0.79821311  0.02505246     0.11400
H644        H  0.54381566  0.84252676  0.05233021     0.08000
C645        C  0.49821625  0.65311544  0.92973064    -0.11100
C646        C  0.53023851  0.69235195  0.92379059     0.06000
C647        C  0.52407390  0.72592607  0.92729239    -0.09900
C648        C  0.48729137  0.72050780  0.93761471    -0.11500
C649        C  0.45588437  0.68137800  0.94454014    -0.01300
C650        C  0.46150204  0.64767995  0.93999109    -0.10400
C651        C  0.57053288  0.69802828  0.91545017     0.06000
H652        H  0.54824307  0.75650733  0.92300648     0.08000
H653        H  0.48393279  0.74715587  0.94082604     0.11400
H654        H  0.43793164  0.61715076  0.94495280     0.11700
H655        H  0.50180938  0.62655072  0.92678427     0.08000
C656        C  0.58665882  0.67594306  0.92758488    -0.11100
C657        C  0.62353580  0.67936351  0.91949384    -0.10400
C658        C  0.64555831  0.70515676  0.89910126    -0.01300
C659        C  0.63036868  0.72853999  0.88746199    -0.11500
C660        C  0.59306399  0.72496338  0.89557343    -0.09900
H661        H  0.57067172  0.65587216  0.94342658     0.08000
H662        H  0.63469602  0.66147097  0.92923867     0.11700
H663        H  0.64668892  0.74865978  0.87171340     0.11400
H664        H  0.58133635  0.74241344  0.88589919     0.08000
C665        C  0.41088461  0.15417703  0.90487058    -0.11100
C666        C  0.44968775  0.15777755  0.90132537     0.06000
C667        C  0.45351377  0.13027624  0.88473508    -0.09900
C668        C  0.41887466  0.09735545  0.87414696    -0.11500
C669        C  0.37990150  0.09189466  0.87942902    -0.01300
C670        C  0.37616101  0.12147838  0.89384121    -0.10400
C671        C  0.48499044  0.18643118  0.91727026     0.06000
H672        H  0.48312580  0.13292544  0.88110408     0.08000
H673        H  0.42231539  0.07493504  0.86287884     0.11400
H674        H  0.34623292  0.11751343  0.89828706     0.11700
H675        H  0.40696805  0.17481488  0.91763190     0.08000
C676        C  0.49229459  0.22600225  0.92287015    -0.11100
C677        C  0.52417033  0.25150190  0.93937743    -0.10400
C678        C  0.54918411  0.23780420  0.95067245    -0.01300
C679        C  0.54203422  0.19839600  0.94482390    -0.11500
C680        C  0.51032228  0.17303625  0.92837108    -0.09900
H681        H  0.47334303  0.23716154  0.91453595     0.08000
H682        H  0.52899086  0.28180504  0.94344649     0.11700
H683        H  0.56061887  0.18685168  0.95321799     0.11400
H684        H  0.50491555  0.14237302  0.92492953     0.08000
C685        C  0.40772918  0.27117122  0.11173175    -0.11100
C686        C  0.44069868  0.30946732  0.10520747     0.06000
C687        C  0.43790594  0.34468809  0.10988114    -0.09900
C688        C  0.40179631  0.34166645  0.11911849    -0.11500
C689        C  0.36755968  0.30328700  0.12379965    -0.01300
C690        C  0.37125697  0.26807663  0.12099012    -0.10400
C691        C  0.47663712  0.31310774  0.09139551     0.06000
H692        H  0.46329193  0.37458135  0.10545481     0.08000
H693        H  0.40019562  0.36943604  0.12152822     0.11400
H694        H  0.34536355  0.23811521  0.12450781     0.11700
H695        H  0.40937429  0.24362112  0.10828369     0.08000
C696        C  0.49814817  0.29401294  0.10031250    -0.11100
C697        C  0.53319669  0.29948882  0.08738966    -0.10400
C698        C  0.54661625  0.32350662  0.06515117    -0.01300
C699        C  0.52440002  0.34172719  0.05601710    -0.11500
C700        C  0.48989722  0.33672449  0.06906537    -0.09900
H701        H  0.48829057  0.27558979  0.11747522     0.08000
H702        H  0.54953862  0.28467973  0.09461934     0.11700
H703        H  0.53388682  0.36019631  0.03886400     0.11400
H704        H  0.47336172  0.35122109  0.06163232     0.08000
C705        C  0.75009097  0.60584675  0.92664853    -0.11100
C706        C  0.71942385  0.56696908  0.91848854     0.06000
C707        C  0.69448822  0.56406463  0.89764770    -0.09900
C708        C  0.69804241  0.59919117  0.88647845    -0.11500
C709        C  0.72707543  0.63783434  0.89557401    -0.01300
C710        C  0.75388742  0.64109804  0.91522819    -0.10400
C711        C  0.71118456  0.52974015  0.93278822     0.06000
H712        H  0.67115069  0.53458159  0.89061070     0.08000
H713        H  0.67678674  0.59623034  0.87151535     0.11400
H714        H  0.77579568  0.67076280  0.92287088     0.11700
H715        H  0.76950003  0.60905963  0.94281213     0.08000
C716        C  0.74335350  0.52447023  0.94198096    -0.11100
C717        C  0.73511990  0.48955534  0.95581080    -0.10400
C718        C  0.69453971  0.45932442  0.96088469    -0.01300
C719        C  0.66242075  0.46474561  0.95178572    -0.11500
C720        C  0.67065006  0.49951393  0.93790064    -0.09900
H721        H  0.77486024  0.54714555  0.93825707     0.08000
H722        H  0.76058193  0.48631912  0.96258754     0.11700
H723        H  0.63084906  0.44212905  0.95540123     0.11400
H724        H  0.64518339  0.50306221  0.93152585     0.08000
C725        C  0.87580338  0.33202646  0.88863118    -0.11100
C726        C  0.84998587  0.29936595  0.90451839     0.06000
C727        C  0.85601799  0.26544135  0.90622231    -0.09900
C728        C  0.88901249  0.26554763  0.89360806    -0.11500
C729        C  0.91652477  0.29977337  0.87947186    -0.01300
C730        C  0.90904689  0.33244817  0.87650609    -0.10400
C731        C  0.81986635  0.30295401  0.92113365     0.06000
H732        H  0.83674734  0.23996079  0.91844836     0.08000
H733        H  0.89452942  0.24016431  0.89624862     0.11400
H734        H  0.92974065  0.35894459  0.86543639     0.11700
H735        H  0.87125084  0.35807897  0.88640274     0.08000
C736        C  0.83081615  0.34044821  0.93317328    -0.11100
C737        C  0.80360517  0.34449412  0.94942417    -0.10400
C738        C  0.76477933  0.31105533  0.95424206    -0.01300
C739        C  0.75364144  0.27337506  0.94228724    -0.11500
C740        C  0.78102190  0.26934137  0.92587753    -0.09900
H741        H  0.86088830  0.36666251  0.93043514     0.08000
H742        H  0.81324141  0.37388457  0.95838229     0.11700
H743        H  0.72382321  0.24706733  0.94558415     0.11400
H744        H  0.77175912  0.24012564  0.91678135     0.08000
C745        C  0.85869169  0.57496421  0.12170050    -0.11100
C746        C  0.86283438  0.54026126  0.11752439     0.06000
C747        C  0.89876924  0.54086215  0.12533140    -0.09900
C748        C  0.93120376  0.57638689  0.13540812    -0.11500
C749        C  0.92853476  0.61222545  0.13772684    -0.01300
C750        C  0.89140257  0.61081046  0.13174186    -0.10400
C751        C  0.83192761  0.50500196  0.10267360     0.06000
H752        H  0.90234674  0.51423317  0.12264569     0.08000
H753        H  0.95919042  0.57631123  0.14021919     0.11400
H754        H  0.88852014  0.63797841  0.13326990     0.11700
H755        H  0.83117833  0.57510973  0.11574036     0.08000
C756        C  0.79025864  0.48610009  0.10901989    -0.11100
C757        C  0.76150637  0.45308952  0.09440829    -0.10400
C758        C  0.77398592  0.43917369  0.07292416    -0.01300
C759        C  0.81569448  0.45828774  0.06661542    -0.11500
C760        C  0.84438307  0.49064599  0.08145403    -0.09900
H761        H  0.78006391  0.49675964  0.12530826     0.08000
H762        H  0.72946496  0.43909374  0.09953463     0.11700
H763        H  0.82616800  0.44825816  0.05015000     0.11400
H764        H  0.87634488  0.50509368  0.07603250     0.08000
C765        C  0.68607347  0.19675902  0.10696486    -0.11100
C766        C  0.66984459  0.15691723  0.09721655     0.06000
C767        C  0.65140237  0.14770466  0.07288073    -0.09900
C768        C  0.64906788  0.17758711  0.05854664    -0.11500
C769        C  0.66473570  0.21735552  0.06831397    -0.01300
C770        C  0.68321770  0.22667753  0.09272043    -0.10400
C771        C  0.67165021  0.12443230  0.11201028     0.06000
H772        H  0.63912015  0.11732035  0.06479833     0.08000
H773        H  0.63474078  0.16942649  0.03982571     0.11400
H774        H  0.69581229  0.25715859  0.10068143     0.11700
H775        H  0.70038955  0.20452790  0.12569724     0.08000
C776        C  0.70864038  0.13019935  0.12238969    -0.11100
C777        C  0.71103325  0.09709902  0.13267875    -0.10400
C778        C  0.67635299  0.05790890  0.13288079    -0.01300
C779        C  0.63880779  0.05322178  0.12424295    -0.11500
C780        C  0.63656755  0.08598591  0.11384302    -0.09900
H781        H  0.73610513  0.15969125  0.12123681     0.08000
H782        H  0.74033808  0.10180862  0.13931382     0.11700
H783        H  0.61124027  0.02373058  0.12444002     0.11400
H784        H  0.60753505  0.08096530  0.10641557     0.08000
C785        C  0.91313094  0.88410297  0.81354854    -0.11100
C786        C  0.87146058  0.87091894  0.80929282     0.06000
C787        C  0.86082832  0.89068217  0.79052206    -0.09900
C788        C  0.89110838  0.92231328  0.77603214    -0.11500
C789        C  0.93256636  0.93482258  0.78004363    -0.01300
C790        C  0.94339248  0.91594156  0.79915971    -0.10400
C791        C  0.83925591  0.83645798  0.82420977     0.06000
H792        H  0.82905243  0.88114854  0.78668765     0.08000
H793        H  0.88216779  0.93699700  0.76164723     0.11400
H794        H  0.97525846  0.92532693  0.80259764     0.11700
H795        H  0.92234067  0.86992960  0.82812515     0.08000
C796        C  0.84281244  0.80177497  0.82940010    -0.11100
C797        C  0.81273064  0.76941279  0.84352867    -0.10400
C798        C  0.77829001  0.77089637  0.85285076    -0.01300
C799        C  0.77458693  0.80548989  0.84748301    -0.11500
C800        C  0.80470481  0.83786580  0.83332837    -0.09900
H801        H  0.86870298  0.79944829  0.82227873     0.08000
H802        H  0.81651972  0.74318062  0.84709387     0.11700
H803        H  0.74855312  0.80776014  0.85436734     0.11400
H804        H  0.80125900  0.86432660  0.82985946     0.08000
C805        C  0.97256946  0.09948330  0.81114881    -0.11100
C806        C  0.00092493  0.14026634  0.80519541     0.06000
C807        C  0.03070601  0.14813664  0.78634445    -0.09900
C808        C  0.03171098  0.11606544  0.77346220    -0.11500
C809        C  0.00254091  0.07549789  0.77881957    -0.01300
C810        C  0.97349755  0.06734372  0.79811190    -0.10400
C811        C  0.99920109  0.17460665  0.81817845     0.06000
H812        H  0.05267474  0.17912292  0.78109334     0.08000
H813        H  0.05475330  0.12293044  0.75886079     0.11400
H814        H  0.95087162  0.03617532  0.80256221     0.11700
H815        H  0.94965164  0.09244270  0.82585244     0.08000
C816        C  0.96142068  0.17239275  0.82326925    -0.11100
C817        C  0.95989521  0.20525775  0.83472618    -0.10400
C818        C  0.99612831  0.24117768  0.84127711    -0.01300
C819        C  0.03389310  0.24329835  0.83630691    -0.11500
C820        C  0.03539609  0.21034569  0.82495226    -0.09900
H821        H  0.93301500  0.14556625  0.81791124     0.08000
H822        H  0.93023949  0.20262820  0.83813925     0.11700
H823        H  0.06235359  0.27037984  0.84123142     0.11400
H824        H  0.06497543  0.21277325  0.82161041     0.08000
C825        C  0.20131450  0.04272414  0.83247940    -0.11100
C826        C  0.16826299  0.00485362  0.82504141     0.06000
C827        C  0.17005312  0.96917546  0.83031210    -0.09900
C828        C  0.20445274  0.97140723  0.84215716    -0.11500
C829        C  0.23786216  0.00938013  0.84905306    -0.01300
C830        C  0.23562753  0.04495551  0.84435179    -0.10400
C831        C  0.13306230  0.00287722  0.81079323     0.06000
H832        H  0.14487303  0.93944640  0.82522026     0.08000
H833        H  0.20504845  0.94338093  0.84557234     0.11400
H834        H  0.26070500  0.07474438  0.84946682     0.11700
H835        H  0.20129144  0.07086006  0.82842125     0.08000
C836        C  0.11851487  0.03007541  0.81653908    -0.11100
C837        C  0.08743585  0.03005514  0.80182759    -0.10400
C838        C  0.07038415  0.00292736  0.78110183    -0.01300
C839        C  0.08346955  0.97450980  0.77606678    -0.11500
C840        C  0.11475432  0.97475382  0.79055640    -0.09900
H841        H  0.13134047  0.05158446  0.83230826     0.08000
H842        H  0.07743618  0.05192319  0.80621983     0.11700
H843        H  0.06996869  0.95254394  0.76057833     0.11400
H844        H  0.12533730  0.95362303  0.78540629     0.08000
C845        C  0.87654891  0.91013346  0.69264006    -0.11100
C846        C  0.87184612  0.87061918  0.69254734     0.06000
C847        C  0.89944935  0.86364589  0.70697859    -0.09900
C848        C  0.92994431  0.89491462  0.72171181    -0.11500
C849        C  0.93392031  0.93385284  0.72185521    -0.01300
C850        C  0.90765343  0.94155661  0.70692764    -0.10400
C851        C  0.83768167  0.83668042  0.67808567     0.06000
H852        H  0.89759781  0.83404606  0.70691319     0.08000
H853        H  0.95050261  0.88882519  0.73296729     0.11400
H854        H  0.91051320  0.97163276  0.70695658     0.11700
H855        H  0.85561866  0.91667132  0.68221949     0.08000
C856        C  0.81878062  0.79649007  0.68745771    -0.11100
C857        C  0.78628129  0.76474346  0.67420472    -0.10400
C858        C  0.77121524  0.77253914  0.65162439    -0.01300
C859        C  0.78975924  0.81253436  0.64221713    -0.11500
C860        C  0.82294718  0.84416785  0.65511660    -0.09900
H861        H  0.82847444  0.78952216  0.70533238     0.08000
H862        H  0.77228350  0.73417711  0.68194625     0.11700
H863        H  0.77903549  0.81921378  0.62462619     0.11400
H864        H  0.83718262  0.87441793  0.64693003     0.08000
C865        C  0.96977881  0.17110406  0.66842558    -0.11100
C866        C  0.00511769  0.16902218  0.67461859     0.06000
C867        C  0.04334675  0.20076100  0.66658550    -0.09900
C868        C  0.04621170  0.23372034  0.65280238    -0.11500
C869        C  0.01094918  0.23599662  0.64679960    -0.01300
C870        C  0.97265916  0.20421469  0.65472387    -0.10400
C871        C  0.00240289  0.13440624  0.68976783     0.06000
H872        H  0.07128920  0.20064149  0.67139762     0.08000
H873        H  0.07623462  0.25765878  0.64710396     0.11400
H874        H  0.94483518  0.20491290  0.65043275     0.11700
H875        H  0.93977958  0.14696595  0.67397465     0.08000
C876        C  0.97366016  0.11696502  0.70970509    -0.11100
C877        C  0.97246688  0.08574186  0.72464035    -0.10400
C878        C  0.00048087  0.07187141  0.72029047    -0.01300
C879        C  0.02830311  0.08822789  0.69996299    -0.11500
C880        C  0.02925171  0.11913546  0.68483388    -0.09900
H881        H  0.95272238  0.12808194  0.71421703     0.08000
H882        H  0.95009852  0.07288080  0.73989198     0.11700
H883        H  0.04996524  0.07772343  0.69614935     0.11400
H884        H  0.05114077  0.13113539  0.66928921     0.08000
C885        C  0.16499325  0.95970534  0.67585225    -0.11100
C886        C  0.16913505  0.99824807  0.68111059     0.06000
C887        C  0.20558252  0.03329243  0.67402247    -0.09900
C888        C  0.23723800  0.02988125  0.66217651    -0.11500
C889        C  0.23323756  0.99131844  0.65710658    -0.01300
C890        C  0.19661175  0.95627481  0.66398255    -0.10400
C891        C  0.13594760  0.00173048  0.69452952     0.06000
H892        H  0.20957388  0.06342594  0.67750163     0.08000
H893        H  0.26492081  0.05756267  0.65708441     0.11400
H894        H  0.19245629  0.92608701  0.66047252     0.11700
H895        H  0.13759925  0.93209807  0.68142592     0.08000
C896        C  0.09460200  0.97422024  0.68902815    -0.11100
C897        C  0.06342027  0.97585775  0.70277754    -0.10400
C898        C  0.07295508  0.00482525  0.72237972    -0.01300
C899        C  0.11408771  0.03343096  0.72723380    -0.11500
C900        C  0.14530437  0.03179146  0.71353694    -0.09900
H901        H  0.08634453  0.95122405  0.67417759     0.08000
H902        H  0.03184482  0.95371645  0.69862380     0.11700
H903        H  0.12205021  0.05651370  0.74200693     0.11400
H904        H  0.17676475  0.05329417  0.71837123     0.08000
loop_ 
_geom_bond_atom_site_label_1 
_geom_bond_atom_site_label_2 
_geom_bond_distance 
_geom_bond_site_symmetry_2 
_ccdc_geom_bond_type 
C1            H2   1.111       .  S
C1            C7   1.535       .  S
C1            C6   1.530   1_445  S
C1            C5   1.531       .  S
C3            H4   1.111       .  S
C3            C9   1.535   1_445  S
C3            C8   1.538       .  S
C3           C10   1.537       .  S
C5            C8   1.376       .  D
C5          C878   1.483       .  S
C6            C9   1.372       .  D
C6          C849   1.472       .  S
C7           C10   1.377       .  D
C7          C898   1.483       .  S
C8          C809   1.479       .  S
C9          C789   1.482       .  S
C10         C838   1.483       .  S
Zn11         O15   1.934       .  S
Zn11         O16   2.009   1_554  S
Zn11         O20   1.996   1_554  S
Zn11         O27   2.007       .  S
Zn12         O15   1.941   1_556  S
Zn12         O17   2.006       .  S
Zn12         O19   2.016       .  S
Zn12         O23   1.999   1_556  S
Zn13         O15   1.944   1_556  S
Zn13         O18   2.011       .  S
Zn13         O21   2.015       .  S
Zn13         O24   2.020   1_556  S
Zn14         O15   1.945       .  S
Zn14         O22   2.018       .  S
Zn14         O25   2.010       .  S
Zn14         O26   2.018       .  S
O16          C28   1.272       .  A
O17          C29   1.272       .  A
O18          C30   1.273       .  A
O19          C28   1.274       .  A
O20          C30   1.273       .  A
O21          C29   1.275       .  A
O22          C31   1.274       .  A
O23          C32   1.274       .  A
O24          C31   1.276       .  A
O25          C32   1.273       .  A
O26          C33   1.274       .  A
O27          C33   1.274       .  A
C28         C718   1.481       .  S
C29         C678   1.479       .  S
C30         C738   1.476       .  S
C31         C769   1.481       .  S
C32         C698   1.473       .  S
C33         C758   1.476       .  S
C34         C798   1.487       .  S
C34          N35   1.366       .  A
C34          N39   1.365       .  A
N35          C36   1.361       .  A
C36         C658   1.481       .  S
C36          N37   1.353       .  A
N37          C38   1.350       .  A
C38         C709   1.464       .  S
C38          N39   1.357       .  A
Zn40         O44   1.950       .  S
Zn40         O45   2.006       .  S
Zn40         O49   2.013   1_556  S
Zn40         O56   2.023       .  S
Zn41         O44   1.953       .  S
Zn41         O46   2.024   1_556  S
Zn41         O48   2.029       .  S
Zn41         O52   2.005       .  S
Zn42         O44   1.951   1_554  S
Zn42         O47   2.012       .  S
Zn42         O50   2.006       .  S
Zn42         O53   2.003       .  S
Zn43         O44   1.954       .  S
Zn43         O51   2.026   1_556  S
Zn43         O54   2.028       .  S
Zn43         O55   2.008       .  S
O45          C57   1.273       .  A
O46          C58   1.274       .  A
O47          C59   1.273       .  A
O48          C57   1.277       .  A
O49          C59   1.274       .  A
O50          C58   1.272       .  A
O51          C60   1.275       .  A
O52          C61   1.273       .  A
O53          C60   1.273       .  A
O54          C61   1.276       .  A
O55          C62   1.272       .  A
O56          C62   1.275       .  A
C57         C649   1.483       .  S
C58         C578   1.479       .  S
C59         C638   1.479       .  S
C60         C609   1.478       .  S
C61         C558   1.477       .  S
C62         C598   1.479       .  S
C63         C529   1.479       .  S
C63          N64   1.362       .  A
C63          N68   1.365       .  A
N64          C65   1.356       .  A
C65         C689   1.475       .  S
C65          N66   1.352       .  A
N66          C67   1.351       .  A
C67         C569   1.471       .  S
C67          N68   1.360       .  A
C69         C829   1.484       .  S
C69          N70   1.362       .  A
C69          N74   1.365   1_545  A
N70          C71   1.355       .  A
C71         C669   1.467       .  S
C71          N72   1.352       .  A
N72          C73   1.354   1_545  A
C73         C589   1.483       .  S
C73          N74   1.361       .  A
C75         C509   1.485   1_455  S
C75          N76   1.364   1_455  A
C75          N80   1.363       .  A
N76          C77   1.360       .  A
C77         C749   1.478       .  S
C77          N78   1.354   1_655  A
N78          C79   1.351       .  A
C79         C618   1.473       .  S
C79          N80   1.357       .  A
C81         C818   1.481       .  S
C81          N82   1.365   1_655  A
C81          N86   1.360       .  A
N82          C83   1.361       .  A
C83         C549   1.484       .  S
C83          N84   1.355   1_455  A
N84          C85   1.352       .  A
C85         C729   1.467       .  S
C85          N86   1.354       .  A
C87         C498   1.484       .  S
C87          N88   1.361       .  A
C87          N92   1.365   1_565  A
N88          C89   1.354       .  A
C89         C629   1.468       .  S
C89          N90   1.351       .  A
N90          C91   1.355   1_565  A
C91         C778   1.484       .  S
C91          N92   1.363       .  A
Zn93         O97   1.956       .  S
Zn93         O98   2.022       .  S
Zn93        O102   2.005       .  S
Zn93        O109   2.022       .  S
Zn94         O97   1.960       .  S
Zn94         O99   2.040       .  S
Zn94        O101   2.006       .  S
Zn94        O105   2.035       .  S
Zn95         O97   1.947       .  S
Zn95        O100   2.014       .  S
Zn95        O103   1.994       .  S
Zn95        O106   2.012       .  S
Zn96         O97   1.945       .  S
Zn96        O104   2.000       .  S
Zn96        O107   1.987       .  S
Zn96        O108   1.993       .  S
O98         C110   1.275       .  A
O99         C111   1.277       .  A
O100        C112   1.274       .  A
O101        C110   1.273       .  A
O102        C112   1.273       .  A
O103        C111   1.272       .  A
O104        C113   1.271       .  A
O105        C114   1.276       .  A
O106        C113   1.273       .  A
O107        C114   1.271       .  A
O108        C115   1.271       .  A
O109        C115   1.274       .  A
C110        C409   1.479       .  S
C111        C469   1.479       .  S
C112        C369   1.478       .  S
C113        C458   1.474       .  S
C114        C429   1.478       .  S
C115        C398   1.475       .  S
C116        C858   1.476       .  S
C116        N117   1.366       .  A
C116        N121   1.365       .  A
N117        C118   1.358       .  A
C118        C358   1.472       .  S
C118        N119   1.350       .  A
N119        C120   1.350       .  A
C120        C478   1.479       .  S
C120        N121   1.359       .  A
Zn122       O126   1.947       .  S
Zn122       O127   2.015       .  S
Zn122       O131   2.007       .  S
Zn122       O138   2.026       .  S
Zn123       O126   1.956       .  S
Zn123       O128   2.024       .  S
Zn123       O130   2.017       .  S
Zn123       O134   2.029       .  S
Zn124       O126   1.945       .  S
Zn124       O129   2.021       .  S
Zn124       O132   2.014       .  S
Zn124       O135   2.010       .  S
Zn125       O126   1.934       .  S
Zn125       O133   2.011       .  S
Zn125       O136   2.002       .  S
Zn125       O137   1.999       .  S
O127        C139   1.275       .  A
O128        C140   1.275       .  A
O129        C141   1.275       .  A
O130        C139   1.275       .  A
O131        C141   1.273       .  A
O132        C140   1.275       .  A
O133        C142   1.274       .  A
O134        C143   1.275       .  A
O135        C142   1.273       .  A
O136        C143   1.273       .  A
O137        C144   1.272       .  A
O138        C144   1.275       .  A
C139        C289   1.479       .  S
C140        C249   1.480       .  S
C141        C329   1.477       .  S
C142        C269   1.476       .  S
C143        C349   1.482       .  S
C144        C309   1.480       .  S
C145        C889   1.486       .  S
C145        N146   1.364   1_565  A
C145        N150   1.365       .  A
N146        C147   1.359       .  A
C147        C418   1.482       .  S
C147        N148   1.352   1_545  A
N148        C149   1.351       .  A
C149        C298   1.472       .  S
C149        N150   1.359       .  A
C151        C869   1.484       .  S
C151        N152   1.363       .  A
C151        N156   1.364   1_455  A
N152        C153   1.357       .  A
C153        C258   1.467       .  S
C153        N154   1.352       .  A
N154        C155   1.354   1_455  A
C155        C378   1.482       .  S
C155        N156   1.360       .  A
C157        C229   1.484       .  S
C157        N158   1.363   1_655  A
C157        N162   1.362       .  A
N158        C159   1.360       .  A
C159        C338   1.477       .  S
C159        N160   1.354   1_455  A
N160        C161   1.353       .  A
C161        C449   1.469       .  S
C161        N162   1.357       .  A
C163        C218   1.480       .  S
C163        N164   1.363       .  A
C163        N168   1.362       .  A
N164        C165   1.359       .  A
C165        C278   1.475       .  S
C165        N166   1.353       .  A
N166        C167   1.353       .  A
C167        C438   1.472       .  S
C167        N168   1.358       .  A
C169        C198   1.484       .  S
C169        N170   1.361       .  A
C169        N174   1.362   1_545  A
N170        C171   1.358       .  A
C171        C389   1.472       .  S
C171        N172   1.353       .  A
N172        C173   1.354   1_545  A
C173        C318   1.474       .  S
C173        N174   1.359       .  A
C175        H176   1.112       .  S
C175        C181   1.529   1_665  S
C175        C180   1.534       .  S
C175        C179   1.529       .  S
C177        H178   1.111       .  S
C177        C183   1.537   1_545  S
C177        C182   1.538       .  S
C177        C184   1.535   1_655  S
C179        C182   1.375   1_565  D
C179        C489   1.477       .  S
C180        C183   1.378       .  D
C180        C518   1.482       .  S
C181        C184   1.370       .  D
C181        C538   1.470       .  S
C182        C189   1.482       .  S
C183        C238   1.483       .  S
C184        C209   1.476       .  S
C185        C186   1.409   1_565  A
C185        C190   1.401       .  A
C185        H195   1.083       .  S
C186        C191   1.486       .  S
C186        C187   1.405       .  A
C187        C188   1.393       .  A
C187        H192   1.083       .  S
C188        C189   1.403       .  A
C188        H193   1.083       .  S
C189        C190   1.401   1_545  A
C190        H194   1.083       .  S
C191        C196   1.406   1_545  A
C191        C200   1.406       .  A
C196        C197   1.399       .  A
C196        H201   1.083       .  S
C197        C198   1.407   1_565  A
C197        H202   1.083       .  S
C198        C199   1.406       .  A
C199        C200   1.397       .  A
C199        H203   1.083       .  S
C200        H204   1.083       .  S
C205        C206   1.409       .  A
C205        C210   1.398       .  A
C205        H215   1.082       .  S
C206        C211   1.490       .  S
C206        C207   1.408       .  A
C207        C208   1.398       .  A
C207        H212   1.082       .  S
C208        C209   1.399       .  A
C208        H213   1.081       .  S
C209        C210   1.400       .  A
C210        H214   1.083       .  S
C211        C216   1.408       .  A
C211        C220   1.407       .  A
C216        C217   1.398       .  A
C216        H221   1.082       .  S
C217        C218   1.404       .  A
C217        H222   1.083       .  S
C218        C219   1.404       .  A
C219        C220   1.397       .  A
C219        H223   1.083       .  S
C220        H224   1.082       .  S
C225        C226   1.405   1_455  A
C225        C230   1.399       .  A
C225        H235   1.083       .  S
C226        C231   1.484       .  S
C226        C227   1.404       .  A
C227        C228   1.397       .  A
C227        H232   1.083       .  S
C228        C229   1.407       .  A
C228        H233   1.083       .  S
C229        C230   1.407   1_655  A
C230        H234   1.083       .  S
C231        C236   1.406   1_655  A
C231        C240   1.406       .  A
C236        C237   1.399       .  A
C236        H241   1.083       .  S
C237        C238   1.402   1_455  A
C237        H242   1.081       .  S
C238        C239   1.403       .  A
C239        C240   1.395       .  A
C239        H243   1.083       .  S
C240        H244   1.083       .  S
C245        C246   1.404       .  A
C245        C250   1.397       .  A
C245        H255   1.083       .  S
C246        C251   1.481       .  S
C246        C247   1.405       .  A
C247        C248   1.399       .  A
C247        H252   1.083       .  S
C248        C249   1.405       .  A
C248        H253   1.083       .  S
C249        C250   1.406       .  A
C250        H254   1.083       .  S
C251        C256   1.404       .  A
C251        C260   1.408       .  A
C256        C257   1.394       .  A
C256        H261   1.083       .  S
C257        C258   1.401       .  A
C257        H262   1.083       .  S
C258        C259   1.402       .  A
C259        C260   1.401       .  A
C259        H263   1.083       .  S
C260        H264   1.083       .  S
C265        C266   1.408       .  A
C265        C270   1.395       .  A
C265        H275   1.082       .  S
C266        C271   1.487       .  S
C266        C267   1.406       .  A
C267        C268   1.398       .  A
C267        H272   1.083       .  S
C268        C269   1.405       .  A
C268        H273   1.083       .  S
C269        C270   1.402       .  A
C270        H274   1.083       .  S
C271        C276   1.405       .  A
C271        C280   1.409       .  A
C276        C277   1.394       .  A
C276        H281   1.083       .  S
C277        C278   1.404       .  A
C277        H282   1.084       .  S
C278        C279   1.403       .  A
C279        C280   1.400       .  A
C279        H283   1.083       .  S
C280        H284   1.082       .  S
C285        C286   1.403       .  A
C285        C290   1.396       .  A
C285        H295   1.083       .  S
C286        C291   1.479       .  S
C286        C287   1.404       .  A
C287        C288   1.399       .  A
C287        H292   1.083       .  S
C288        C289   1.406       .  A
C288        H293   1.083       .  S
C289        C290   1.405       .  A
C290        H294   1.083       .  S
C291        C296   1.402       .  A
C291        C300   1.407       .  A
C296        C297   1.394       .  A
C296        H301   1.083       .  S
C297        C298   1.404       .  A
C297        H302   1.083       .  S
C298        C299   1.403       .  A
C299        C300   1.401       .  A
C299        H303   1.083       .  S
C300        H304   1.083       .  S
C305        C306   1.409       .  A
C305        C310   1.398       .  A
C305        H315   1.082       .  S
C306        C311   1.488       .  S
C306        C307   1.405       .  A
C307        C308   1.395       .  A
C307        H312   1.082       .  S
C308        C309   1.406       .  A
C308        H313   1.083       .  S
C309        C310   1.404       .  A
C310        H314   1.083       .  S
C311        C316   1.406       .  A
C311        C320   1.409       .  A
C316        C317   1.396       .  A
C316        H321   1.082       .  S
C317        C318   1.405       .  A
C317        H322   1.083       .  S
C318        C319   1.402       .  A
C319        C320   1.397       .  A
C319        H323   1.083       .  S
C320        H324   1.082       .  S
C325        C326   1.406       .  A
C325        C330   1.398       .  A
C325        H335   1.083       .  S
C326        C331   1.487       .  S
C326        C327   1.408       .  A
C327        C328   1.396       .  A
C327        H332   1.082       .  S
C328        C329   1.402       .  A
C328        H333   1.083       .  S
C329        C330   1.406       .  A
C330        H334   1.083       .  S
C331        C336   1.408       .  A
C331        C340   1.405       .  A
C336        C337   1.400       .  A
C336        H341   1.082       .  S
C337        C338   1.404       .  A
C337        H342   1.083       .  S
C338        C339   1.405       .  A
C339        C340   1.394       .  A
C339        H343   1.083       .  S
C340        H344   1.083       .  S
C345        C346   1.406       .  A
C345        C350   1.402       .  A
C345        H355   1.083       .  S
C346        C351   1.484       .  S
C346        C347   1.404       .  A
C347        C348   1.393       .  A
C347        H352   1.083       .  S
C348        C349   1.405       .  A
C348        H353   1.083       .  S
C349        C350   1.407       .  A
C350        H354   1.083       .  S
C351        C356   1.409       .  A
C351        C360   1.403       .  A
C356        C357   1.405       .  A
C356        H361   1.082       .  S
C357        C358   1.403       .  A
C357        H362   1.083       .  S
C358        C359   1.403       .  A
C359        C360   1.389       .  A
C359        H363   1.083       .  S
C360        H364   1.083       .  S
C365        C366   1.405       .  A
C365        C370   1.397       .  A
C365        H375   1.082       .  S
C366        C371   1.485       .  S
C366        C367   1.407       .  A
C367        C368   1.396       .  A
C367        H372   1.083       .  S
C368        C369   1.403       .  A
C368        H373   1.083       .  S
C369        C370   1.406       .  A
C370        H374   1.083       .  S
C371        C376   1.408       .  A
C371        C380   1.403       .  A
C376        C377   1.401       .  A
C376        H381   1.083       .  S
C377        C378   1.406       .  A
C377        H382   1.083       .  S
C378        C379   1.407       .  A
C379        C380   1.392       .  A
C379        H383   1.083       .  S
C380        H384   1.083       .  S
C385        C386   1.402       .  A
C385        C390   1.395       .  A
C385        H395   1.083       .  S
C386        C391   1.474       .  S
C386        C387   1.404       .  A
C387        C388   1.398       .  A
C387        H392   1.083       .  S
C388        C389   1.404       .  A
C388        H393   1.083       .  S
C389        C390   1.404       .  A
C390        H394   1.083       .  S
C391        C396   1.402       .  A
C391        C400   1.404       .  A
C396        C397   1.396       .  A
C396        H401   1.083       .  S
C397        C398   1.406       .  A
C397        H402   1.083       .  S
C398        C399   1.404       .  A
C399        C400   1.397       .  A
C399        H403   1.083       .  S
C400        H404   1.083       .  S
C405        C406   1.406       .  A
C405        C410   1.397       .  A
C405        H415   1.082       .  S
C406        C411   1.488       .  S
C406        C407   1.408       .  A
C407        C408   1.397       .  A
C407        H412   1.082       .  S
C408        C409   1.403       .  A
C408        H413   1.083       .  S
C409        C410   1.406       .  A
C410        H414   1.083       .  S
C411        C416   1.409       .  A
C411        C420   1.404       .  A
C416        C417   1.401       .  A
C416        H421   1.082       .  S
C417        C418   1.405       .  A
C417        H422   1.083       .  S
C418        C419   1.407       .  A
C419        C420   1.392       .  A
C419        H423   1.083       .  S
C420        H424   1.083       .  S
C425        C426   1.401       .  A
C425        C430   1.395       .  A
C425        H435   1.083       .  S
C426        C431   1.476       .  S
C426        C427   1.404       .  A
C427        C428   1.399       .  A
C427        H432   1.083       .  S
C428        C429   1.405       .  A
C428        H433   1.083       .  S
C429        C430   1.407       .  A
C430        H434   1.083       .  S
C431        C436   1.402       .  A
C431        C440   1.405       .  A
C436        C437   1.394       .  A
C436        H441   1.084       .  S
C437        C438   1.404       .  A
C437        H442   1.083       .  S
C438        C439   1.404       .  A
C439        C440   1.400       .  A
C439        H443   1.083       .  S
C440        H444   1.083       .  S
C445        C446   1.403       .  A
C445        C450   1.394       .  A
C445        H455   1.083       .  S
C446        C451   1.479       .  S
C446        C447   1.406       .  A
C447        C448   1.398       .  A
C447        H452   1.083       .  S
C448        C449   1.402       .  A
C448        H453   1.083       .  S
C449        C450   1.403       .  A
C450        H454   1.083       .  S
C451        C456   1.404       .  A
C451        C460   1.405       .  A
C456        C457   1.397       .  A
C456        H461   1.083       .  S
C457        C458   1.405       .  A
C457        H462   1.083       .  S
C458        C459   1.404       .  A
C459        C460   1.395       .  A
C459        H463   1.083       .  S
C460        H464   1.083       .  S
C465        C466   1.405       .  A
C465        C470   1.396       .  A
C465        H475   1.082       .  S
C466        C471   1.490       .  S
C466        C467   1.410       .  A
C467        C468   1.399       .  A
C467        H472   1.082       .  S
C468        C469   1.403       .  A
C468        H473   1.083       .  S
C469        C470   1.406       .  A
C470        H474   1.083       .  S
C471        C476   1.411       .  A
C471        C480   1.403       .  A
C476        C477   1.403       .  A
C476        H481   1.082       .  S
C477        C478   1.404       .  A
C477        H482   1.083       .  S
C478        C479   1.405       .  A
C479        C480   1.390       .  A
C479        H483   1.083       .  S
C480        H484   1.082       .  S
C485        C486   1.406       .  A
C485        C490   1.394       .  A
C485        H495   1.083       .  S
C486        C491   1.482       .  S
C486        C487   1.406   1_565  A
C487        C488   1.400       .  A
C487        H492   1.083       .  S
C488        C489   1.402   1_545  A
C488        H493   1.083       .  S
C489        C490   1.401       .  A
C490        H494   1.083       .  S
C491        C496   1.403       .  A
C491        C500   1.406   1_565  A
C496        C497   1.395       .  A
C496        H501   1.083       .  S
C497        C498   1.407       .  A
C497        H502   1.083       .  S
C498        C499   1.407   1_565  A
C499        C500   1.401       .  A
C499        H503   1.083       .  S
C500        H504   1.083       .  S
C505        C506   1.404   1_455  A
C505        C510   1.396       .  A
C505        H515   1.083       .  S
C506        C511   1.484       .  S
C506        C507   1.406       .  A
C507        C508   1.400       .  A
C507        H512   1.083       .  S
C508        C509   1.407       .  A
C508        H513   1.083       .  S
C509        C510   1.407   1_655  A
C510        H514   1.083       .  S
C511        C516   1.406   1_655  A
C511        C520   1.406       .  A
C516        C517   1.395       .  A
C516        H521   1.083       .  S
C517        C518   1.403   1_455  A
C517        H522   1.083       .  S
C518        C519   1.403       .  A
C519        C520   1.400       .  A
C519        H523   1.083       .  S
C520        H524   1.083       .  S
C525        C526   1.408       .  A
C525        C530   1.399       .  A
C525        H535   1.082       .  S
C526        C531   1.488       .  S
C526        C527   1.406       .  A
C527        C528   1.395       .  A
C527        H532   1.082       .  S
C528        C529   1.405       .  A
C528        H533   1.083       .  S
C529        C530   1.404       .  A
C530        H534   1.083       .  S
C531        C536   1.408       .  A
C531        C540   1.410       .  A
C536        C537   1.395       .  A
C536        H541   1.082       .  S
C537        C538   1.398       .  A
C537        H542   1.083       .  S
C538        C539   1.398       .  A
C539        C540   1.398       .  A
C539        H543   1.083       .  S
C540        H544   1.082       .  S
C545        C546   1.409       .  A
C545        C550   1.402       .  A
C545        H555   1.082       .  S
C546        C551   1.490       .  S
C546        C547   1.404       .  A
C547        C548   1.392       .  A
C547        H552   1.082       .  S
C548        C549   1.406       .  A
C548        H553   1.083       .  S
C549        C550   1.406       .  A
C550        H554   1.083       .  S
C551        C556   1.406       .  A
C551        C560   1.409       .  A
C556        C557   1.397       .  A
C556        H561   1.082       .  S
C557        C558   1.405       .  A
C557        H562   1.083       .  S
C558        C559   1.402       .  A
C559        C560   1.398       .  A
C559        H563   1.083       .  S
C560        H564   1.082       .  S
C565        C566   1.403       .  A
C565        C570   1.392       .  A
C565        H575   1.083       .  S
C566        C571   1.481       .  S
C566        C567   1.408       .  A
C567        C568   1.403       .  A
C567        H572   1.083       .  S
C568        C569   1.403       .  A
C568        H573   1.083       .  S
C569        C570   1.403       .  A
C570        H574   1.083       .  S
C571        C576   1.404       .  A
C571        C580   1.405       .  A
C576        C577   1.396       .  A
C576        H581   1.083       .  S
C577        C578   1.405       .  A
C577        H582   1.083       .  S
C578        C579   1.406       .  A
C579        C580   1.399       .  A
C579        H583   1.083       .  S
C580        H584   1.083       .  S
C585        C586   1.408       .  A
C585        C590   1.403       .  A
C585        H595   1.083       .  S
C586        C591   1.487       .  S
C586        C587   1.403       .  A
C587        C588   1.392       .  A
C587        H592   1.083       .  S
C588        C589   1.407       .  A
C588        H593   1.083       .  S
C589        C590   1.406       .  A
C590        H594   1.083       .  S
C591        C596   1.405       .  A
C591        C600   1.407       .  A
C596        C597   1.398       .  A
C596        H601   1.083       .  S
C597        C598   1.406       .  A
C597        H602   1.083       .  S
C598        C599   1.403       .  A
C599        C600   1.397       .  A
C599        H603   1.083       .  S
C600        H604   1.083       .  S
C605        C606   1.404       .  A
C605        C610   1.397       .  A
C605        H615   1.083       .  S
C606        C611   1.478       .  S
C606        C607   1.403       .  A
C607        C608   1.397       .  A
C607        H612   1.083       .  S
C608        C609   1.406       .  A
C608        H613   1.083       .  S
C609        C610   1.405       .  A
C610        H614   1.083       .  S
C611        C616   1.405       .  A
C611        C620   1.403       .  A
C616        C617   1.399       .  A
C616        H621   1.083       .  S
C617        C618   1.403       .  A
C617        H622   1.083       .  S
C618        C619   1.405       .  A
C619        C620   1.395       .  A
C619        H623   1.083       .  S
C620        H624   1.083       .  S
C625        C626   1.403       .  A
C625        C630   1.396       .  A
C625        H635   1.083       .  S
C626        C631   1.477       .  S
C626        C627   1.406       .  A
C627        C628   1.398       .  A
C627        H632   1.083       .  S
C628        C629   1.402       .  A
C628        H633   1.084       .  S
C629        C630   1.403       .  A
C630        H634   1.083       .  S
C631        C636   1.404       .  A
C631        C640   1.403       .  A
C636        C637   1.400       .  A
C636        H641   1.083       .  S
C637        C638   1.407       .  A
C637        H642   1.083       .  S
C638        C639   1.405       .  A
C639        C640   1.394       .  A
C639        H643   1.083       .  S
C640        H644   1.083       .  S
C645        C646   1.407       .  A
C645        C650   1.396       .  A
C645        H655   1.083       .  S
C646        C651   1.485       .  S
C646        C647   1.404       .  A
C647        C648   1.400       .  A
C647        H652   1.083       .  S
C648        C649   1.409       .  A
C648        H653   1.083       .  S
C649        C650   1.404       .  A
C650        H654   1.083       .  S
C651        C656   1.402       .  A
C651        C660   1.408       .  A
C656        C657   1.391       .  A
C656        H661   1.083       .  S
C657        C658   1.406       .  A
C657        H662   1.083       .  S
C658        C659   1.406       .  A
C659        C660   1.404       .  A
C659        H663   1.083       .  S
C660        H664   1.083       .  S
C665        C666   1.408       .  A
C665        C670   1.400       .  A
C665        H675   1.083       .  S
C666        C671   1.483       .  S
C666        C667   1.405       .  A
C667        C668   1.393       .  A
C667        H672   1.083       .  S
C668        C669   1.401       .  A
C668        H673   1.084       .  S
C669        C670   1.402       .  A
C670        H674   1.083       .  S
C671        C676   1.404       .  A
C671        C680   1.406       .  A
C676        C677   1.399       .  A
C676        H681   1.083       .  S
C677        C678   1.408       .  A
C677        H682   1.083       .  S
C678        C679   1.403       .  A
C679        C680   1.393       .  A
C679        H683   1.083       .  S
C680        H684   1.083       .  S
C685        C686   1.405       .  A
C685        C690   1.401       .  A
C685        H695   1.083       .  S
C686        C691   1.474       .  S
C686        C687   1.401       .  A
C687        C688   1.389       .  A
C687        H692   1.084       .  S
C688        C689   1.405       .  A
C688        H693   1.083       .  S
C689        C690   1.406       .  A
C690        H694   1.083       .  S
C691        C696   1.403       .  A
C691        C700   1.404       .  A
C696        C697   1.399       .  A
C696        H701   1.083       .  S
C697        C698   1.407       .  A
C697        H702   1.083       .  S
C698        C699   1.402       .  A
C699        C700   1.390       .  A
C699        H703   1.083       .  S
C700        H704   1.083       .  S
C705        C706   1.408       .  A
C705        C710   1.401       .  A
C705        H715   1.083       .  S
C706        C711   1.485       .  S
C706        C707   1.405       .  A
C707        C708   1.394       .  A
C707        H712   1.083       .  S
C708        C709   1.400       .  A
C708        H713   1.084       .  S
C709        C710   1.401       .  A
C710        H714   1.083       .  S
C711        C716   1.404       .  A
C711        C720   1.407       .  A
C716        C717   1.399       .  A
C716        H721   1.083       .  S
C717        C718   1.407       .  A
C717        H722   1.083       .  S
C718        C719   1.404       .  A
C719        C720   1.396       .  A
C719        H723   1.083       .  S
C720        H724   1.083       .  S
C725        C726   1.405       .  A
C725        C730   1.391       .  A
C725        H735   1.083       .  S
C726        C731   1.480       .  S
C726        C727   1.407       .  A
C727        C728   1.399       .  A
C727        H732   1.083       .  S
C728        C729   1.403       .  A
C728        H733   1.083       .  S
C729        C730   1.400       .  A
C730        H734   1.084       .  S
C731        C736   1.404       .  A
C731        C740   1.405       .  A
C736        C737   1.390       .  A
C736        H741   1.083       .  S
C737        C738   1.403       .  A
C737        H742   1.083       .  S
C738        C739   1.407       .  A
C739        C740   1.400       .  A
C739        H743   1.083       .  S
C740        H744   1.083       .  S
C745        C746   1.406       .  A
C745        C750   1.402       .  A
C745        H755   1.083       .  S
C746        C751   1.477       .  S
C746        C747   1.401       .  A
C747        C748   1.392       .  A
C747        H752   1.083       .  S
C748        C749   1.406       .  A
C748        H753   1.083       .  S
C749        C750   1.406       .  A
C750        H754   1.083       .  S
C751        C756   1.403       .  A
C751        C760   1.404       .  A
C756        C757   1.400       .  A
C756        H761   1.083       .  S
C757        C758   1.407       .  A
C757        H762   1.083       .  S
C758        C759   1.403       .  A
C759        C760   1.394       .  A
C759        H763   1.083       .  S
C760        H764   1.083       .  S
C765        C766   1.404       .  A
C765        C770   1.402       .  A
C765        H775   1.083       .  S
C766        C771   1.481       .  S
C766        C767   1.405       .  A
C767        C768   1.394       .  A
C767        H772   1.083       .  S
C768        C769   1.404       .  A
C768        H773   1.083       .  S
C769        C770   1.409       .  A
C770        H774   1.083       .  S
C771        C776   1.406       .  A
C771        C780   1.401       .  A
C776        C777   1.404       .  A
C776        H781   1.083       .  S
C777        C778   1.407       .  A
C777        H782   1.083       .  S
C778        C779   1.408       .  A
C779        C780   1.392       .  A
C779        H783   1.083       .  S
C780        H784   1.084       .  S
C785        C786   1.407       .  A
C785        C790   1.399       .  A
C785        H795   1.083       .  S
C786        C791   1.488       .  S
C786        C787   1.407       .  A
C787        C788   1.398       .  A
C787        H792   1.083       .  S
C788        C789   1.403       .  A
C788        H793   1.083       .  S
C789        C790   1.401       .  A
C790        H794   1.083       .  S
C791        C796   1.405       .  A
C791        C800   1.406       .  A
C796        C797   1.398       .  A
C796        H801   1.083       .  S
C797        C798   1.407       .  A
C797        H802   1.083       .  S
C798        C799   1.407       .  A
C799        C800   1.400       .  A
C799        H803   1.083       .  S
C800        H804   1.083       .  S
C805        C806   1.408   1_655  A
C805        C810   1.399       .  A
C805        H815   1.083       .  S
C806        C811   1.484   1_455  S
C806        C807   1.405       .  A
C807        C808   1.394       .  A
C807        H812   1.082       .  S
C808        C809   1.402       .  A
C808        H813   1.083       .  S
C809        C810   1.401   1_455  A
C810        H814   1.083       .  S
C811        C816   1.405       .  A
C811        C820   1.406   1_655  A
C816        C817   1.396       .  A
C816        H821   1.083       .  S
C817        C818   1.407       .  A
C817        H822   1.083       .  S
C818        C819   1.404   1_655  A
C819        C820   1.397       .  A
C819        H823   1.083       .  S
C820        H824   1.083       .  S
C825        C826   1.405       .  A
C825        C830   1.396       .  A
C825        H835   1.083       .  S
C826        C831   1.488       .  S
C826        C827   1.407   1_545  A
C827        C828   1.399       .  A
C827        H832   1.083       .  S
C828        C829   1.406   1_565  A
C828        H833   1.083       .  S
C829        C830   1.406       .  A
C830        H834   1.083       .  S
C831        C836   1.408       .  A
C831        C840   1.406   1_545  A
C836        C837   1.399       .  A
C836        H841   1.083       .  S
C837        C838   1.402       .  A
C837        H842   1.083       .  S
C838        C839   1.403   1_545  A
C839        C840   1.396       .  A
C839        H843   1.083       .  S
C840        H844   1.082       .  S
C845        C846   1.409       .  A
C845        C850   1.397       .  A
C845        H855   1.082       .  S
C846        C851   1.491       .  S
C846        C847   1.410       .  A
C847        C848   1.397       .  A
C847        H852   1.082       .  S
C848        C849   1.399       .  A
C848        H853   1.083       .  S
C849        C850   1.398       .  A
C850        H854   1.084       .  S
C851        C856   1.408       .  A
C851        C860   1.409       .  A
C856        C857   1.397       .  A
C856        H861   1.082       .  S
C857        C858   1.402       .  A
C857        H862   1.083       .  S
C858        C859   1.403       .  A
C859        C860   1.398       .  A
C859        H863   1.083       .  S
C860        H864   1.082       .  S
C865        C866   1.407   1_655  A
C865        C870   1.399       .  A
C865        H875   1.083       .  S
C866        C871   1.489       .  S
C866        C867   1.406       .  A
C867        C868   1.397       .  A
C867        H872   1.082       .  S
C868        C869   1.406       .  A
C868        H873   1.083       .  S
C869        C870   1.407   1_455  A
C870        H874   1.083       .  S
C871        C876   1.408   1_455  A
C871        C880   1.408       .  A
C876        C877   1.397       .  A
C876        H881   1.082       .  S
C877        C878   1.404   1_655  A
C877        H882   1.083       .  S
C878        C879   1.401       .  A
C879        C880   1.397       .  A
C879        H883   1.083       .  S
C880        H884   1.083       .  S
C885        C886   1.406       .  A
C885        C890   1.398       .  A
C885        H895   1.083       .  S
C886        C891   1.488   1_565  S
C886        C887   1.406   1_565  A
C887        C888   1.399       .  A
C887        H892   1.083       .  S
C888        C889   1.407   1_545  A
C888        H893   1.083       .  S
C889        C890   1.406       .  A
C890        H894   1.083       .  S
C891        C896   1.407   1_545  A
C891        C900   1.407       .  A
C896        C897   1.398       .  A
C896        H901   1.083       .  S
C897        C898   1.401   1_565  A
C897        H902   1.083       .  S
C898        C899   1.404       .  A
C899        C900   1.398       .  A
C899        H903   1.083       .  S
C900        H904   1.082       .  S
