geometry optimzed in LAMMPS
_audit_creation_date              2020-11-30 
_audit_creation_method            'lammps2cif' 
_symmetry_space_group_name_H-M    'P1' 
_symmetry_Int_Tables_number       1 
_symmetry_cell_setting            triclinic 
loop_ 
_symmetry_equiv_pos_as_xyz 
  x,y,z 
_cell_length_a                    35.15136409 
_cell_length_b                    35.15131387445855 
_cell_length_c                    33.828354098673394 
_cell_angle_alpha                 90.19899554160607 
_cell_angle_beta                  89.81175816727482 
_cell_angle_gamma                 89.98439075157184 
loop_ 
_atom_site_label 
_atom_site_type_symbol 
_atom_site_fract_x 
_atom_site_fract_y 
_atom_site_fract_z 
_atom_site_charge 
C1          C  0.18408140  0.50195005  0.16350919     0.79000
N2          N  0.16496838  0.50074977  0.12867302    -0.79300
C3          C  0.12576005  0.01342543  0.12876590     0.81500
N4          N  0.10638581  0.01441591  0.16350736    -0.79200
C5          C  0.12547493  0.01343788  0.19827650     0.81600
N6          N  0.16456474  0.50084302  0.19819616    -0.80900
C7          C  0.30000330  0.51040872  0.16433215     0.79000
N8          N  0.31917409  0.51146345  0.19913222    -0.79300
C9          C  0.35740576  0.00380803  0.19906644     0.81500
N10         N  0.37675498  0.00327584  0.16431103    -0.79200
C11         C  0.35762248  0.00399719  0.12956965     0.81600
N12         N  0.31946823  0.51161835  0.12962581    -0.80900
C13         C  0.48927573  0.19435617  0.16431704     0.79000
N14         N  0.49048861  0.17516845  0.19909646    -0.79300
C15         C  0.49316142  0.13660387  0.19907752     0.81500
N16         N  0.49436902  0.11729114  0.16430606    -0.79200
C17         C  0.49299102  0.13639192  0.12956649     0.81600
N18         N  0.49033126  0.17492143  0.12957282    -0.80900
C19         C  0.48210353  0.31033426  0.16362748     0.79000
N20         N  0.48131354  0.32950605  0.12883038    -0.79300
C21         C  0.47894493  0.36809109  0.12878695     0.81500
N22         N  0.47785249  0.38745467  0.16354171    -0.79200
C23         C  0.47896540  0.36837248  0.19831286     0.81600
N24         N  0.48132656  0.32982277  0.19833944    -0.80900
N25         N  0.07160551  0.02807235  0.04288554    -0.07300
N26         N  0.08963311  0.04276246  0.07357594    -0.59400
N27         N  0.07287597  0.48059720  0.28437294    -0.07000
N28         N  0.09158212  0.46689223  0.25351567    -0.61500
N29         N  0.07148580  0.02809842  0.28466429    -0.06600
N30         N  0.08931489  0.04277898  0.25383807    -0.59400
N31         N  0.07311076  0.48050469  0.04254479    -0.06300
N32         N  0.09203812  0.46678131  0.07303011    -0.61900
C33         C  0.10482171  0.01203446  0.09155215     0.94900
C34         C  0.10434208  0.01203085  0.23545201     0.94700
N35         N  0.46489253  0.42261102  0.28467724    -0.07500
N36         N  0.45001587  0.40494075  0.25384429    -0.60000
N37         N  0.00769320  0.41946298  0.04245405    -0.05600
N38         N  0.02016274  0.39953897  0.07280913    -0.61300
N39         N  0.46489808  0.42252904  0.04294648    -0.07500
N40         N  0.45000160  0.40464437  0.07362227    -0.60300
N41         N  0.00757450  0.41969581  0.28452202    -0.05200
N42         N  0.02002067  0.40002225  0.25376838    -0.61300
Mn43       Mn  0.04125025  0.44905975  0.33015009     1.18400
C44         C  0.48058807  0.38952425  0.23548990     0.97000
C45         C  0.48054850  0.38906240  0.09157934     0.97600
N46         N  0.00295837  0.08549200  0.28536859    -0.07500
N47         N  0.01437572  0.10618108  0.25507010    -0.63800
N48         N  0.47405969  0.08432728  0.04305345    -0.06300
N49         N  0.46106467  0.10388798  0.07363018    -0.64500
N50         N  0.00296069  0.08535216  0.04308013    -0.07000
N51         N  0.01437485  0.10585695  0.07357199    -0.64100
N52         N  0.47413735  0.08431759  0.28525157    -0.06200
N53         N  0.46119970  0.10402524  0.25497313    -0.64800
Mn54       Mn  0.03813673  0.05780471  0.33066936     1.10700
C55         C  0.49316411  0.11560469  0.23629189     0.98200
C56         C  0.49300701  0.11528542  0.09232719     0.98300
N57         N  0.40830425  0.49173881  0.04302005    -0.07100
N58         N  0.38758230  0.48048417  0.07340298    -0.62400
N59         N  0.41012788  0.02185317  0.28520247    -0.06400
N60         N  0.39084866  0.03522080  0.25481709    -0.59200
N61         N  0.40817235  0.49168142  0.28537694    -0.07700
N62         N  0.38727075  0.48039732  0.25518292    -0.62000
N63         N  0.41013506  0.02193971  0.04311192    -0.06700
N64         N  0.39100331  0.03536768  0.07378983    -0.59200
Mn65       Mn  0.43553706  0.45628871  0.33067622     1.20200
Mn66       Mn  0.44117991  0.05406542  0.33081286     1.10100
Cl67       Cl  0.49179828  0.00207350  0.33061085    -0.87100
C68         C  0.37869775  0.00367405  0.09233436     0.95200
C69         C  0.37836124  0.00350651  0.23628770     0.95000
C70         C  0.48453272  0.26948191  0.16380288    -0.14500
C71         C  0.48663612  0.23519555  0.16418993    -0.16000
C72         C  0.22491351  0.50486387  0.16374427    -0.14500
C73         C  0.25918192  0.50733810  0.16414737    -0.16000
C74         C  0.18408140  0.50195009  0.49684253     0.79000
N75         N  0.16496841  0.50074969  0.46200638    -0.79300
C76         C  0.12576003  0.01342535  0.46209926     0.81500
N77         N  0.10638577  0.01441581  0.49684071    -0.79200
C78         C  0.12547492  0.01343793  0.53160986     0.81600
N79         N  0.16456477  0.50084314  0.53152953    -0.80900
C80         C  0.30000332  0.51040872  0.49766545     0.79000
N81         N  0.31917401  0.51146357  0.53246552    -0.79300
C82         C  0.35740580  0.00380805  0.53239973     0.81500
N83         N  0.37675497  0.00327570  0.49764429    -0.79200
C84         C  0.35762243  0.00399715  0.46290294     0.81600
N85         N  0.31946823  0.51161819  0.46295909    -0.80900
C86         C  0.48927568  0.19435619  0.49765040     0.79000
N87         N  0.49048862  0.17516848  0.53242982    -0.79300
C88         C  0.49316134  0.13660388  0.53241088     0.81500
N89         N  0.49436884  0.11729114  0.49763941    -0.79200
C90         C  0.49299103  0.13639195  0.46289984     0.81600
N91         N  0.49033131  0.17492146  0.46290618    -0.80900
C92         C  0.48210350  0.31033433  0.49696082     0.79000
N93         N  0.48131345  0.32950611  0.46216373    -0.79300
C94         C  0.47894494  0.36809119  0.46212032     0.81500
N95         N  0.47785259  0.38745472  0.49687507    -0.79200
C96         C  0.47896536  0.36837252  0.53164621     0.81600
N97         N  0.48132645  0.32982278  0.53167278    -0.80900
N98         N  0.07160551  0.02807238  0.37621886    -0.07300
N99         N  0.08963301  0.04276244  0.40690934    -0.59400
N100        N  0.07287608  0.48059710  0.61770630    -0.07000
N101        N  0.09158220  0.46689211  0.58684899    -0.61500
N102        N  0.07148582  0.02809851  0.61799768    -0.06600
N103        N  0.08931482  0.04277905  0.58717142    -0.59400
N104        N  0.07311079  0.48050465  0.37587806    -0.06300
N105        N  0.09203803  0.46678132  0.40636341    -0.61900
C106        C  0.10482158  0.01203443  0.42488555     0.94900
C107        C  0.10434203  0.01203094  0.56878534     0.94700
N108        N  0.46489244  0.42261106  0.61801050    -0.07500
N109        N  0.45001580  0.40494081  0.58717753    -0.60000
N110        N  0.00769319  0.41946307  0.37578742    -0.05600
N111        N  0.02016278  0.39953905  0.40614251    -0.61300
N112        N  0.46489813  0.42252902  0.37627975    -0.07500
N113        N  0.45000164  0.40464444  0.40695558    -0.60300
N114        N  0.00757442  0.41969569  0.61785541    -0.05200
N115        N  0.02002055  0.40002209  0.58710176    -0.61300
Mn116      Mn  0.04125030  0.44905960  0.66348345     1.18400
C117        C  0.48058800  0.38952426  0.56882321     0.97000
C118        C  0.48054855  0.38906251  0.42491269     0.97600
N119        N  0.00295834  0.08549208  0.61870199    -0.07500
N120        N  0.01437566  0.10618116  0.58840351    -0.63800
N121        N  0.47405976  0.08432726  0.37638680    -0.06300
N122        N  0.46106470  0.10388800  0.40696352    -0.64500
N123        N  0.00296075  0.08535203  0.37641353    -0.07000
N124        N  0.01437495  0.10585681  0.40690536    -0.64100
N125        N  0.47413737  0.08431758  0.61858492    -0.06200
N126        N  0.46119974  0.10402515  0.58830646    -0.64800
Mn127      Mn  0.03813675  0.05780481  0.66400274     1.10700
C128        C  0.49316412  0.11560473  0.56962525     0.98200
C129        C  0.49300703  0.11528549  0.42566051     0.98300
N130        N  0.40830434  0.49173871  0.37635339    -0.07100
N131        N  0.38758240  0.48048404  0.40673633    -0.62400
N132        N  0.41012781  0.02185318  0.61853586    -0.06400
N133        N  0.39084857  0.03522083  0.58815046    -0.59200
N134        N  0.40817237  0.49168140  0.61871026    -0.07700
N135        N  0.38727075  0.48039731  0.58851623    -0.62000
N136        N  0.41013507  0.02193973  0.37644523    -0.06700
N137        N  0.39100313  0.03536773  0.40712304    -0.59200
Mn138      Mn  0.43553694  0.45628864  0.66400956     1.20200
Mn139      Mn  0.44117983  0.05406534  0.66414621     1.10100
Cl140      Cl  0.49179831  0.00207356  0.66394421    -0.87100
C141        C  0.37869765  0.00367407  0.42566759     0.95200
C142        C  0.37836127  0.00350654  0.56962101     0.95000
C143        C  0.48453280  0.26948196  0.49713621    -0.14500
C144        C  0.48663617  0.23519560  0.49752328    -0.16000
C145        C  0.22491353  0.50486389  0.49707761    -0.14500
C146        C  0.25918190  0.50733803  0.49748066    -0.16000
C147        C  0.18408140  0.50195001  0.83017589     0.79000
N148        N  0.16496839  0.50074969  0.79533973    -0.79300
C149        C  0.12576007  0.01342547  0.79543259     0.81500
N150        N  0.10638576  0.01441588  0.83017400    -0.79200
C151        C  0.12547490  0.01343794  0.86494317     0.81600
N152        N  0.16456476  0.50084295  0.86486288    -0.80900
C153        C  0.30000334  0.51040862  0.83099880     0.79000
N154        N  0.31917405  0.51146336  0.86579886    -0.79300
C155        C  0.35740580  0.00380800  0.86573312     0.81500
N156        N  0.37675495  0.00327573  0.83097767    -0.79200
C157        C  0.35762245  0.00399724  0.79623631     0.81600
N158        N  0.31946826  0.51161825  0.79629246    -0.80900
C159        C  0.48927573  0.19435622  0.83098376     0.79000
N160        N  0.49048869  0.17516847  0.86576314    -0.79300
C161        C  0.49316146  0.13660388  0.86574419     0.81500
N162        N  0.49436894  0.11729116  0.83097270    -0.79200
C163        C  0.49299109  0.13639198  0.79623316     0.81600
N164        N  0.49033138  0.17492150  0.79623951    -0.80900
C165        C  0.48210356  0.31033429  0.83029420     0.79000
N166        N  0.48131350  0.32950607  0.79549709    -0.79300
C167        C  0.47894487  0.36809111  0.79545365     0.81500
N168        N  0.47785243  0.38745467  0.83020841    -0.79200
C169        C  0.47896539  0.36837247  0.86497957     0.81600
N170        N  0.48132655  0.32982277  0.86500615    -0.80900
N171        N  0.07160547  0.02807242  0.70955223    -0.07300
N172        N  0.08963302  0.04276254  0.74024268    -0.59400
N173        N  0.07287608  0.48059716  0.95103958    -0.07000
N174        N  0.09158211  0.46689218  0.92018228    -0.61500
N175        N  0.07148589  0.02809852  0.95133102    -0.06600
N176        N  0.08931489  0.04277913  0.92050477    -0.59400
N177        N  0.07311069  0.48050467  0.70921143    -0.06300
N178        N  0.09203804  0.46678128  0.73969673    -0.61900
C179        C  0.10482164  0.01203454  0.75821885     0.94900
C180        C  0.10434197  0.01203099  0.90211864     0.94700
N181        N  0.46489254  0.42261114  0.95134381    -0.07500
N182        N  0.45001589  0.40494088  0.92051087    -0.60000
N183        N  0.00769325  0.41946294  0.70912077    -0.05600
N184        N  0.02016277  0.39953886  0.73947584    -0.61300
N185        N  0.46489801  0.42252900  0.70961314    -0.07500
N186        N  0.45000159  0.40464432  0.74028888    -0.60300
N187        N  0.00757444  0.41969578  0.95118872    -0.05200
N188        N  0.02002057  0.40002216  0.92043511    -0.61300
Mn189      Mn  0.04125034  0.44905967  0.99681679     1.18400
C190        C  0.48058806  0.38952421  0.90215659     0.97000
C191        C  0.48054850  0.38906241  0.75824603     0.97600
N192        N  0.00295833  0.08549193  0.95203522    -0.07500
N193        N  0.01437564  0.10618102  0.92173677    -0.63800
N194        N  0.47405972  0.08432720  0.70972020    -0.06300
N195        N  0.46106471  0.10388792  0.74029690    -0.64500
N196        N  0.00296067  0.08535211  0.70974687    -0.07000
N197        N  0.01437489  0.10585692  0.74023873    -0.64100
N198        N  0.47413741  0.08431768  0.95191831    -0.06200
N199        N  0.46119979  0.10402527  0.92163981    -0.64800
Mn200      Mn  0.03813680  0.05780473  0.99733605     1.10700
C201        C  0.49316420  0.11560472  0.90295858     0.98200
C202        C  0.49300705  0.11528552  0.75899383     0.98300
N203        N  0.40830421  0.49173872  0.70968670    -0.07100
N204        N  0.38758235  0.48048408  0.74006968    -0.62400
N205        N  0.41012788  0.02185320  0.95186919    -0.06400
N206        N  0.39084865  0.03522079  0.92148383    -0.59200
N207        N  0.40817231  0.49168144  0.95204366    -0.07700
N208        N  0.38727065  0.48039728  0.92184967    -0.62000
N209        N  0.41013500  0.02193971  0.70977858    -0.06700
N210        N  0.39100317  0.03536772  0.74045638    -0.59200
Mn211      Mn  0.43553700  0.45628871  0.99734291     1.20200
Mn212      Mn  0.44117987  0.05406542  0.99747955     1.10100
Cl213      Cl  0.49179836  0.00207360  0.99727757    -0.87100
C214        C  0.37869766  0.00367408  0.75900100     0.95200
C215        C  0.37836130  0.00350651  0.90295436     0.95000
C216        C  0.48453265  0.26948196  0.83046959    -0.14500
C217        C  0.48663602  0.23519561  0.83085667    -0.16000
C218        C  0.22491352  0.50486396  0.83041097    -0.14500
C219        C  0.25918191  0.50733808  0.83081400    -0.16000
C220        C  0.18351956  0.01060835  0.16360994     0.79000
N221        N  0.16435268  0.01131116  0.12881083    -0.79300
C222        C  0.12641773  0.49789728  0.12856584     0.81500
N223        N  0.10703107  0.49657978  0.16328041    -0.79200
C224        C  0.12604350  0.49800231  0.19808742     0.81600
N225        N  0.16403542  0.01132655  0.19831910    -0.80900
C226        C  0.29957267  0.00576569  0.16428980     0.79000
N227        N  0.31877652  0.00509463  0.19907591    -0.79300
C228        C  0.35770492  0.51459846  0.19920189     0.81500
N229        N  0.37703254  0.51615443  0.16445349    -0.79200
C230        C  0.35796729  0.51475474  0.12966650     0.81600
N231        N  0.31902658  0.00527027  0.12955176    -0.80900
C232        C  0.50069587  0.69375369  0.16428021     0.79000
N233        N  0.50166935  0.67456630  0.19906073    -0.79300
C234        C  0.50444290  0.63600805  0.19907631     0.81500
N235        N  0.50573904  0.61667885  0.16430707    -0.79200
C236        C  0.50443393  0.63577296  0.12954979     0.81600
N237        N  0.50166720  0.67429675  0.12955433    -0.80900
C238        C  0.49353835  0.80973631  0.16359498     0.79000
N239        N  0.49251853  0.82891309  0.12880004    -0.79300
C240        C  0.49026024  0.86750468  0.12879102     0.81500
N241        N  0.48925393  0.88685043  0.16354850    -0.79200
C242        C  0.49042855  0.86775960  0.19830205     0.81600
N243        N  0.49267280  0.82920371  0.19832537    -0.80900
N244        N  0.07455492  0.51792009  0.04248239    -0.07300
N245        N  0.09461650  0.53045076  0.07277975    -0.59400
N246        N  0.07508076  0.99082861  0.28480594    -0.07000
N247        N  0.09559644  0.97935337  0.25427114    -0.61500
N248        N  0.07430800  0.51801160  0.28470698    -0.06600
N249        N  0.09415099  0.53057189  0.25422905    -0.59400
N250        N  0.07518333  0.99079892  0.04246801    -0.06300
N251        N  0.09588910  0.97934396  0.07265937    -0.61900
C252        C  0.10548081  0.49826512  0.09130646     0.94900
C253        C  0.10482161  0.49839335  0.23527341     0.94700
N254        N  0.47206552  0.92044653  0.28475636    -0.07500
N255        N  0.45873578  0.90142735  0.25403896    -0.60000
N256        N  0.01781869  0.92219121  0.04266584    -0.05600
N257        N  0.03250536  0.90414551  0.07324309    -0.61300
N258        N  0.47198565  0.92039357  0.04284082    -0.07500
N259        N  0.45861094  0.90116696  0.07336982    -0.60300
N260        N  0.01781361  0.92233927  0.28445301    -0.05200
N261        N  0.03251352  0.90449692  0.25353431    -0.61300
Mn262      Mn  0.04751637  0.95566532  0.33027466     1.18400
C263        C  0.49049126  0.88888508  0.23552981     0.97000
C264        C  0.49033510  0.88848197  0.09156074     0.97600
N265        N  0.01324935  0.58333839  0.28524077    -0.07500
N266        N  0.02699999  0.60230676  0.25473633    -0.63800
N267        N  0.48142603  0.58554154  0.04300283    -0.06300
N268        N  0.47015118  0.60624179  0.07348390    -0.64500
N269        N  0.01337013  0.58313340  0.04320236    -0.07000
N270        N  0.02715892  0.60189690  0.07386201    -0.64100
N271        N  0.48141070  0.58557244  0.28536013    -0.06200
N272        N  0.47016073  0.60643997  0.25520840    -0.64800
Mn273      Mn  0.04484885  0.55152354  0.33057453     1.10700
C274        C  0.50291867  0.61500271  0.23626484     0.98200
C275        C  0.50289409  0.61462863  0.09236331     0.98300
N276        N  0.40970340  0.98449935  0.04305843    -0.07100
N277        N  0.39029820  0.97163436  0.07371118    -0.62400
N278        N  0.41219475  0.52890520  0.28509754    -0.06400
N279        N  0.39431969  0.54372054  0.25446293    -0.59200
N280        N  0.40966255  0.98441170  0.28510058    -0.07700
N281        N  0.39007978  0.97149866  0.25461303    -0.62000
N282        N  0.41229832  0.52896525  0.04344178    -0.06700
N283        N  0.39458133  0.54382529  0.07437406    -0.59200
Mn284      Mn  0.43988027  0.95149221  0.33060757     1.20200
Mn285      Mn  0.44597378  0.55829477  0.33088439     1.10100
Cl286      Cl  0.49178949  0.50205935  0.33060807    -0.87100
C287        C  0.37915847  0.51323488  0.09248374     0.95200
C288        C  0.37871619  0.51312691  0.23639584     0.95000
C289        C  0.49592567  0.76888004  0.16375038    -0.14500
C290        C  0.49802441  0.73459250  0.16413531    -0.16000
C291        C  0.22438064  0.00866823  0.16378469    -0.14500
C292        C  0.25869206  0.00724784  0.16415544    -0.16000
C293        C  0.18351957  0.01060825  0.49694330     0.79000
N294        N  0.16435265  0.01131102  0.46214418    -0.79300
C295        C  0.12641771  0.49789724  0.46189916     0.81500
N296        N  0.10703111  0.49657969  0.49661377    -0.79200
C297        C  0.12604352  0.49800229  0.53142075     0.81600
N298        N  0.16403539  0.01132662  0.53165245    -0.80900
C299        C  0.29957268  0.00576560  0.49762314     0.79000
N300        N  0.31877656  0.00509468  0.53240923    -0.79300
C301        C  0.35770489  0.51459850  0.53253525     0.81500
N302        N  0.37703251  0.51615430  0.49778685    -0.79200
C303        C  0.35796735  0.51475456  0.46299985     0.81600
N304        N  0.31902653  0.00527027  0.46288507    -0.80900
C305        C  0.50069571  0.69375361  0.49761354     0.79000
N306        N  0.50166912  0.67456619  0.53239405    -0.79300
C307        C  0.50444279  0.63600797  0.53240961     0.81500
N308        N  0.50573903  0.61667875  0.49764037    -0.79200
C309        C  0.50443386  0.63577290  0.46288309     0.81600
N310        N  0.50166718  0.67429670  0.46288766    -0.80900
C311        C  0.49353831  0.80973631  0.49692834     0.79000
N312        N  0.49251856  0.82891310  0.46213339    -0.79300
C313        C  0.49026023  0.86750470  0.46212436     0.81500
N314        N  0.48925382  0.88685044  0.49688186    -0.79200
C315        C  0.49042860  0.86775962  0.53163542     0.81600
N316        N  0.49267286  0.82920373  0.53165874    -0.80900
N317        N  0.07455497  0.51792015  0.37581568    -0.07300
N318        N  0.09461639  0.53045074  0.40611308    -0.59400
N319        N  0.07508079  0.99082865  0.61813932    -0.07000
N320        N  0.09559637  0.97935346  0.58760448    -0.61500
N321        N  0.07430805  0.51801146  0.61804036    -0.06600
N322        N  0.09415097  0.53057179  0.58756232    -0.59400
N323        N  0.07518334  0.99079895  0.37580130    -0.06300
N324        N  0.09588897  0.97934395  0.40599274    -0.61900
C325        C  0.10548076  0.49826509  0.42463985     0.94900
C326        C  0.10482159  0.49839327  0.56860672     0.94700
N327        N  0.47206549  0.92044660  0.61808968    -0.07500
N328        N  0.45873582  0.90142743  0.58737229    -0.60000
N329        N  0.01781869  0.92219125  0.37599920    -0.05600
N330        N  0.03250538  0.90414564  0.40657649    -0.61300
N331        N  0.47198560  0.92039366  0.37617418    -0.07500
N332        N  0.45861094  0.90116706  0.40670317    -0.60300
N333        N  0.01781364  0.92233924  0.61778634    -0.05200
N334        N  0.03251351  0.90449674  0.58686768    -0.61300
Mn335      Mn  0.04751645  0.95566523  0.66360801     1.18400
C336        C  0.49049130  0.88888514  0.56886314     0.97000
C337        C  0.49033509  0.88848204  0.42489411     0.97600
N338        N  0.01324944  0.58333835  0.61857405    -0.07500
N339        N  0.02700008  0.60230664  0.58806954    -0.63800
N340        N  0.48142612  0.58554151  0.37633603    -0.06300
N341        N  0.47015117  0.60624174  0.40681716    -0.64500
N342        N  0.01337017  0.58313342  0.37653566    -0.07000
N343        N  0.02715894  0.60189678  0.40719535    -0.64100
N344        N  0.48141066  0.58557247  0.61869350    -0.06200
N345        N  0.47016071  0.60644003  0.58854181    -0.64800
Mn346      Mn  0.04484890  0.55152358  0.66390788     1.10700
C347        C  0.50291863  0.61500271  0.56959818     0.98200
C348        C  0.50289406  0.61462857  0.42569659     0.98300
N349        N  0.40970346  0.98449941  0.37639178    -0.07100
N350        N  0.39029825  0.97163439  0.40704454    -0.62400
N351        N  0.41219479  0.52890514  0.61843089    -0.06400
N352        N  0.39431969  0.54372054  0.58779628    -0.59200
N353        N  0.40966251  0.98441173  0.61843394    -0.07700
N354        N  0.39007982  0.97149868  0.58794636    -0.62000
N355        N  0.41229840  0.52896513  0.37677513    -0.06700
N356        N  0.39458140  0.54382517  0.40770743    -0.59200
Mn357      Mn  0.43988030  0.95149228  0.66394093     1.20200
Mn358      Mn  0.44597368  0.55829484  0.66421774     1.10100
Cl359      Cl  0.49178945  0.50205940  0.66394142    -0.87100
C360        C  0.37915855  0.51323473  0.42581710     0.95200
C361        C  0.37871613  0.51312692  0.56972923     0.95000
C362        C  0.49592566  0.76888002  0.49708376    -0.14500
C363        C  0.49802428  0.73459244  0.49746870    -0.16000
C364        C  0.22438065  0.00866821  0.49711808    -0.14500
C365        C  0.25869209  0.00724773  0.49748883    -0.16000
C366        C  0.18351956  0.01060830  0.83027665     0.79000
N367        N  0.16435265  0.01131110  0.79547751    -0.79300
C368        C  0.12641771  0.49789716  0.79523252     0.81500
N369        N  0.10703109  0.49657968  0.82994711    -0.79200
C370        C  0.12604351  0.49800223  0.86475410     0.81600
N371        N  0.16403535  0.01132667  0.86498579    -0.80900
C372        C  0.29957268  0.00576572  0.83095649     0.79000
N373        N  0.31877652  0.00509472  0.86574259    -0.79300
C374        C  0.35770490  0.51459837  0.86586859     0.81500
N375        N  0.37703255  0.51615435  0.83112019    -0.79200
C376        C  0.35796735  0.51475465  0.79633319     0.81600
N377        N  0.31902653  0.00527037  0.79621843    -0.80900
C378        C  0.50069575  0.69375361  0.83094689     0.79000
N379        N  0.50166922  0.67456623  0.86572741    -0.79300
C380        C  0.50444283  0.63600798  0.86574300     0.81500
N381        N  0.50573913  0.61667877  0.83097375    -0.79200
C382        C  0.50443389  0.63577289  0.79621648     0.81600
N383        N  0.50166707  0.67429668  0.79622102    -0.80900
C384        C  0.49353830  0.80973628  0.83026170     0.79000
N385        N  0.49251841  0.82891303  0.79546674    -0.79300
C386        C  0.49026012  0.86750464  0.79545773     0.81500
N387        N  0.48925385  0.88685037  0.83021521    -0.79200
C388        C  0.49042864  0.86775959  0.86496879     0.81600
N389        N  0.49267294  0.82920366  0.86499210    -0.80900
N390        N  0.07455489  0.51792013  0.70914909    -0.07300
N391        N  0.09461643  0.53045071  0.73944646    -0.59400
N392        N  0.07508071  0.99082873  0.95147262    -0.07000
N393        N  0.09559629  0.97935351  0.92093771    -0.61500
N394        N  0.07430809  0.51801155  0.95137368    -0.06600
N395        N  0.09415107  0.53057185  0.92089567    -0.59400
N396        N  0.07518335  0.99079900  0.70913467    -0.06300
N397        N  0.09588906  0.97934404  0.73932608    -0.61900
C398        C  0.10548079  0.49826503  0.75797315     0.94900
C399        C  0.10482161  0.49839331  0.90194004     0.94700
N400        N  0.47206556  0.92044660  0.95142303    -0.07500
N401        N  0.45873587  0.90142746  0.92070564    -0.60000
N402        N  0.01781873  0.92219114  0.70933251    -0.05600
N403        N  0.03250536  0.90414549  0.73990976    -0.61300
N404        N  0.47198561  0.92039374  0.70950758    -0.07500
N405        N  0.45861087  0.90116710  0.74003656    -0.60300
N406        N  0.01781359  0.92233924  0.95111971    -0.05200
N407        N  0.03251355  0.90449679  0.92020101    -0.61300
Mn408      Mn  0.04751633  0.95566529  0.99694135     1.18400
C409        C  0.49049134  0.88888509  0.90219650     0.97000
C410        C  0.49033502  0.88848196  0.75822741     0.97600
N411        N  0.01324941  0.58333841  0.95190744    -0.07500
N412        N  0.02700001  0.60230668  0.92140295    -0.63800
N413        N  0.48142608  0.58554154  0.70966939    -0.06300
N414        N  0.47015115  0.60624185  0.74015051    -0.64500
N415        N  0.01337012  0.58313352  0.70986900    -0.07000
N416        N  0.02715888  0.60189688  0.74052871    -0.64100
N417        N  0.48141064  0.58557252  0.95202687    -0.06200
N418        N  0.47016069  0.60643997  0.92187516    -0.64800
Mn419      Mn  0.04484883  0.55152349  0.99724123     1.10700
C420        C  0.50291861  0.61500271  0.90293151     0.98200
C421        C  0.50289407  0.61462858  0.75902992     0.98300
N422        N  0.40970341  0.98449936  0.70972515    -0.07100
N423        N  0.39029817  0.97163439  0.74037789    -0.62400
N424        N  0.41219475  0.52890516  0.95176422    -0.06400
N425        N  0.39431961  0.54372051  0.92112960    -0.59200
N426        N  0.40966261  0.98441169  0.95176728    -0.07700
N427        N  0.39007991  0.97149866  0.92127974    -0.62000
N428        N  0.41229829  0.52896517  0.71010844    -0.06700
N429        N  0.39458139  0.54382520  0.74104076    -0.59200
Mn430      Mn  0.43988036  0.95149219  0.99727427     1.20200
Mn431      Mn  0.44597373  0.55829489  0.99755110     1.10100
Cl432      Cl  0.49178954  0.50205932  0.99727478    -0.87100
C433        C  0.37915851  0.51323479  0.75915043     0.95200
C434        C  0.37871609  0.51312686  0.90306260     0.95000
C435        C  0.49592556  0.76887997  0.83041710    -0.14500
C436        C  0.49802429  0.73459244  0.83080202    -0.16000
C437        C  0.22438061  0.00866814  0.83045142    -0.14500
C438        C  0.25869206  0.00724777  0.83082215    -0.16000
C439        C  0.68357327  0.49318594  0.16354282     0.79000
N440        N  0.66439520  0.49225728  0.12874347    -0.79300
C441        C  0.62615598  0.00015960  0.12881889     0.81500
N442        N  0.60681580  0.00092106  0.16357579    -0.79200
C443        C  0.62594204  0.99996956  0.19831401     0.81600
N444        N  0.66410295  0.49209783  0.19825095    -0.80900
C445        C  0.79949136  0.50165692  0.16436576     0.79000
N446        N  0.81859451  0.50298245  0.19920276    -0.79300
C447        C  0.85779032  0.99050753  0.19911740     0.81500
N448        N  0.87717588  0.98973834  0.16437872    -0.79200
C449        C  0.85807984  0.99049706  0.12960822     0.81600
N450        N  0.81900142  0.50288877  0.12968031    -0.80900
C451        C  0.98167229  0.19384525  0.16439091     0.79000
N452        N  0.98138767  0.17466743  0.19919149    -0.79300
C453        C  0.98015803  0.13603764  0.19923555     0.81500
N454        N  0.97958090  0.11664976  0.16449634    -0.79200
C455        C  0.98010963  0.13575555  0.12972754     0.81600
N456        N  0.98133678  0.17435281  0.12967851    -0.80900
C457        C  0.98516533  0.30994076  0.16355115     0.79000
N458        N  0.98588545  0.32905231  0.12871101    -0.79300
C459        C  0.98716574  0.36767952  0.12861490     0.81500
N460        N  0.98771907  0.38711778  0.16331650    -0.79200
C461        C  0.98700226  0.36807562  0.19811180     0.81600
N462        N  0.98573455  0.32948041  0.19823612    -0.80900
N463        N  0.57391757  0.01970220  0.04279932    -0.07300
N464        N  0.59348959  0.03257812  0.07331492    -0.59400
N465        N  0.57126839  0.47512474  0.28445462    -0.07000
N466        N  0.58897970  0.46023587  0.25353671    -0.61500
N467        N  0.57388595  0.01961386  0.28481551    -0.06600
N468        N  0.59328068  0.03244158  0.25413473    -0.59400
N469        N  0.57136415  0.47518659  0.04276918    -0.06300
N470        N  0.58923472  0.46034372  0.07338902    -0.61900
C471        C  0.60520247  0.00054284  0.09160131     0.94900
C472        C  0.60487387  0.00037466  0.23554931     0.94700
N473        N  0.97015293  0.42100712  0.28468211    -0.07500
N474        N  0.95632143  0.40225068  0.25404395    -0.60000
N475        N  0.50212800  0.41851953  0.04252609    -0.05600
N476        N  0.51333659  0.39763377  0.07268576    -0.61300
N477        N  0.97027053  0.42077206  0.04260816    -0.07500
N478        N  0.95647520  0.40177914  0.07306997    -0.60300
N479        N  0.50211827  0.41858056  0.28484637    -0.05200
N480        N  0.51335767  0.39789414  0.25433683    -0.61300
Mn481      Mn  0.53758239  0.44580471  0.33032598     1.18400
C482        C  0.98774509  0.38922560  0.23529738     0.97000
C483        C  0.98790079  0.38853159  0.09134324     0.97600
N484        N  0.51157735  0.08373275  0.28501894    -0.07500
N485        N  0.52491537  0.10293996  0.25445576    -0.63800
N486        N  0.96568889  0.08179318  0.04339562    -0.06300
N487        N  0.95094350  0.09965341  0.07427519    -0.64500
N488        N  0.51149661  0.08370976  0.04312849    -0.07000
N489        N  0.52478899  0.10273966  0.07386059    -0.64100
N490        N  0.96568724  0.08191218  0.28522861    -0.06200
N491        N  0.95095836  0.09994613  0.25467087    -0.64800
Mn492      Mn  0.54371142  0.05265234  0.33060734     1.10700
C493        C  0.98165617  0.11512280  0.23644542     0.98200
C494        C  0.98164853  0.11464849  0.09252812     0.98300
N495        N  0.90925064  0.48609453  0.04316439    -0.07100
N496        N  0.88940643  0.47350587  0.07362561    -0.62400
N497        N  0.90834696  0.01329053  0.28539723    -0.06400
N498        N  0.88764316  0.02470561  0.25518360    -0.59200
N499        N  0.90899651  0.48618659  0.28540713    -0.07700
N500        N  0.88893441  0.47362744  0.25512590    -0.62000
N501        N  0.90845646  0.01326287  0.04309934    -0.06700
N502        N  0.88794205  0.02469841  0.07365547    -0.59200
Mn503      Mn  0.93870708  0.45260916  0.33063406     1.20200
Mn504      Mn  0.93600508  0.04843917  0.33093862     1.10100
Cl505      Cl  0.99177316  0.00206658  0.33061030    -0.87100
C506        C  0.87920115  0.99199082  0.09243087     0.95200
C507        C  0.87871262  0.99198492  0.23633650     0.95000
C508        C  0.98388315  0.26905643  0.16379495    -0.14500
C509        C  0.98286492  0.23473280  0.16421066    -0.16000
C510        C  0.72440478  0.49610064  0.16372570    -0.14500
C511        C  0.75867222  0.49857905  0.16412860    -0.16000
C512        C  0.68357332  0.49318591  0.49687611     0.79000
N513        N  0.66439524  0.49225731  0.46207677    -0.79300
C514        C  0.62615590  0.00015965  0.46215223     0.81500
N515        N  0.60681582  0.00092114  0.49690913    -0.79200
C516        C  0.62594204  0.99996964  0.53164733     0.81600
N517        N  0.66410303  0.49209787  0.53158423    -0.80900
C518        C  0.79949138  0.50165688  0.49769911     0.79000
N519        N  0.81859451  0.50298246  0.53253613    -0.79300
C520        C  0.85779038  0.99050745  0.53245068     0.81500
N521        N  0.87717590  0.98973813  0.49771198    -0.79200
C522        C  0.85807985  0.99049692  0.46294152     0.81600
N523        N  0.81900141  0.50288878  0.46301367    -0.80900
C524        C  0.98167219  0.19384521  0.49772416     0.79000
N525        N  0.98138768  0.17466740  0.53252478    -0.79300
C526        C  0.98015807  0.13603762  0.53256886     0.81500
N527        N  0.97958098  0.11664971  0.49782967    -0.79200
C528        C  0.98010974  0.13575550  0.46306084     0.81600
N529        N  0.98133680  0.17435273  0.46301180    -0.80900
C530        C  0.98516544  0.30994068  0.49688451     0.79000
N531        N  0.98588554  0.32905226  0.46204436    -0.79300
C532        C  0.98716583  0.36767946  0.46194824     0.81500
N533        N  0.98771908  0.38711775  0.49664983    -0.79200
C534        C  0.98700214  0.36807559  0.53144514     0.81600
N535        N  0.98573457  0.32948039  0.53156949    -0.80900
N536        N  0.57391761  0.01970229  0.37613263    -0.07300
N537        N  0.59348948  0.03257817  0.40664832    -0.59400
N538        N  0.57126837  0.47512463  0.61778785    -0.07000
N539        N  0.58897975  0.46023582  0.58687006    -0.61500
N540        N  0.57388587  0.01961378  0.61814884    -0.06600
N541        N  0.59328051  0.03244153  0.58746797    -0.59400
N542        N  0.57136424  0.47518654  0.37610251    -0.06300
N543        N  0.58923480  0.46034368  0.40672234    -0.61900
C544        C  0.60520230  0.00054288  0.42493473     0.94900
C545        C  0.60487379  0.00037466  0.56888256     0.94700
N546        N  0.97015288  0.42100716  0.61801547    -0.07500
N547        N  0.95632130  0.40225078  0.58737725    -0.60000
N548        N  0.50212804  0.41851954  0.37585936    -0.05600
N549        N  0.51333663  0.39763385  0.40601911    -0.61300
N550        N  0.97027056  0.42077209  0.37594151    -0.07500
N551        N  0.95647522  0.40177905  0.40640329    -0.60300
N552        N  0.50211820  0.41858058  0.61817963    -0.05200
N553        N  0.51335759  0.39789416  0.58767015    -0.61300
Mn554      Mn  0.53758225  0.44580475  0.66365931     1.18400
C555        C  0.98774494  0.38922561  0.56863072     0.97000
C556        C  0.98790083  0.38853158  0.42467656     0.97600
N557        N  0.51157739  0.08373283  0.61835233    -0.07500
N558        N  0.52491541  0.10294007  0.58778914    -0.63800
N559        N  0.96568895  0.08179312  0.37672899    -0.06300
N560        N  0.95094357  0.09965345  0.40760851    -0.64500
N561        N  0.51149665  0.08370980  0.37646183    -0.07000
N562        N  0.52478903  0.10273976  0.40719392    -0.64100
N563        N  0.96568720  0.08191219  0.61856196    -0.06200
N564        N  0.95095832  0.09994605  0.58800417    -0.64800
Mn565      Mn  0.54371135  0.05265237  0.66394070     1.10700
C566        C  0.98165614  0.11512280  0.56977877     0.98200
C567        C  0.98164862  0.11464847  0.42586145     0.98300
N568        N  0.90925071  0.48609448  0.37649777    -0.07100
N569        N  0.88940650  0.47350591  0.40695894    -0.62400
N570        N  0.90834699  0.01329054  0.61873046    -0.06400
N571        N  0.88764327  0.02470558  0.58851684    -0.59200
N572        N  0.90899661  0.48618666  0.61874044    -0.07700
N573        N  0.88893450  0.47362746  0.58845926    -0.62000
N574        N  0.90845643  0.01326281  0.37643266    -0.06700
N575        N  0.88794193  0.02469834  0.40698880    -0.59200
Mn576      Mn  0.93870713  0.45260923  0.66396741     1.20200
Mn577      Mn  0.93600512  0.04843908  0.66427195     1.10100
Cl578      Cl  0.99177326  0.00206662  0.66394366    -0.87100
C579        C  0.87920111  0.99199073  0.42576417     0.95200
C580        C  0.87871268  0.99198488  0.56966970     0.95000
C581        C  0.98388319  0.26905636  0.49712829    -0.14500
C582        C  0.98286479  0.23473272  0.49754386    -0.16000
C583        C  0.72440483  0.49610070  0.49705900    -0.14500
C584        C  0.75867225  0.49857912  0.49746195    -0.16000
C585        C  0.68357338  0.49318594  0.83020940     0.79000
N586        N  0.66439525  0.49225745  0.79541007    -0.79300
C587        C  0.62615594  0.00015968  0.79548556     0.81500
N588        N  0.60681583  0.00092126  0.83024245    -0.79200
C589        C  0.62594202  0.99996972  0.86498067     0.81600
N590        N  0.66410315  0.49209775  0.86491755    -0.80900
C591        C  0.79949137  0.50165692  0.83103243     0.79000
N592        N  0.81859449  0.50298236  0.86586947    -0.79300
C593        C  0.85779041  0.99050746  0.86578401     0.81500
N594        N  0.87717589  0.98973820  0.83104531    -0.79200
C595        C  0.85807984  0.99049700  0.79627485     0.81600
N596        N  0.81900137  0.50288889  0.79634700    -0.80900
C597        C  0.98167222  0.19384522  0.83105752     0.79000
N598        N  0.98138759  0.17466742  0.86585813    -0.79300
C599        C  0.98015802  0.13603764  0.86590221     0.81500
N600        N  0.97958088  0.11664972  0.83116302    -0.79200
C601        C  0.98010971  0.13575554  0.79639421     0.81600
N602        N  0.98133691  0.17435275  0.79634517    -0.80900
C603        C  0.98516541  0.30994069  0.83021786     0.79000
N604        N  0.98588540  0.32905227  0.79537773    -0.79300
C605        C  0.98716570  0.36767947  0.79528162     0.81500
N606        N  0.98771915  0.38711775  0.82998322    -0.79200
C607        C  0.98700217  0.36807556  0.86477852     0.81600
N608        N  0.98573449  0.32948036  0.86490283    -0.80900
N609        N  0.57391752  0.01970228  0.70946601    -0.07300
N610        N  0.59348949  0.03257820  0.73998167    -0.59400
N611        N  0.57126844  0.47512470  0.95112122    -0.07000
N612        N  0.58897983  0.46023588  0.92020344    -0.61500
N613        N  0.57388585  0.01961379  0.95148218    -0.06600
N614        N  0.59328051  0.03244157  0.92080133    -0.59400
N615        N  0.57136405  0.47518655  0.70943588    -0.06300
N616        N  0.58923462  0.46034373  0.74005576    -0.61900
C617        C  0.60520238  0.00054292  0.75826803     0.94900
C618        C  0.60487381  0.00037471  0.90221591     0.94700
N619        N  0.97015287  0.42100715  0.95134881    -0.07500
N620        N  0.95632133  0.40225065  0.92071066    -0.60000
N621        N  0.50212799  0.41851961  0.70919277    -0.05600
N622        N  0.51333658  0.39763391  0.73935247    -0.61300
N623        N  0.97027060  0.42077212  0.70927489    -0.07500
N624        N  0.95647522  0.40177914  0.73973665    -0.60300
N625        N  0.50211828  0.41858056  0.95151299    -0.05200
N626        N  0.51335765  0.39789404  0.92100355    -0.61300
Mn627      Mn  0.53758235  0.44580466  0.99699266     1.18400
C628        C  0.98774497  0.38922552  0.90196413     0.97000
C629        C  0.98790078  0.38853152  0.75800992     0.97600
N630        N  0.51157739  0.08373282  0.95168569    -0.07500
N631        N  0.52491546  0.10293998  0.92112246    -0.63800
N632        N  0.96568894  0.08179315  0.71006233    -0.06300
N633        N  0.95094349  0.09965353  0.74094187    -0.64500
N634        N  0.51149664  0.08370978  0.70979518    -0.07000
N635        N  0.52478903  0.10273979  0.74052723    -0.64100
N636        N  0.96568714  0.08191220  0.95189529    -0.06200
N637        N  0.95095828  0.09994618  0.92133757    -0.64800
Mn638      Mn  0.54371137  0.05265229  0.99727404     1.10700
C639        C  0.98165610  0.11512284  0.90311213     0.98200
C640        C  0.98164855  0.11464854  0.75919477     0.98300
N641        N  0.90925064  0.48609445  0.70983109    -0.07100
N642        N  0.88940636  0.47350586  0.74029225    -0.62400
N643        N  0.90834698  0.01329049  0.95206385    -0.06400
N644        N  0.88764317  0.02470552  0.92185023    -0.59200
N645        N  0.90899654  0.48618665  0.95207380    -0.07700
N646        N  0.88893443  0.47362745  0.92179257    -0.62000
N647        N  0.90845640  0.01326280  0.70976600    -0.06700
N648        N  0.88794197  0.02469832  0.74032212    -0.59200
Mn649      Mn  0.93870701  0.45260915  0.99730075     1.20200
Mn650      Mn  0.93600503  0.04843915  0.99760528     1.10100
Cl651      Cl  0.99177328  0.00206672  0.99727702    -0.87100
C652        C  0.87920111  0.99199074  0.75909755     0.95200
C653        C  0.87871272  0.99198483  0.90300307     0.95000
C654        C  0.98388326  0.26905637  0.83046162    -0.14500
C655        C  0.98286487  0.23473273  0.83087722    -0.16000
C656        C  0.72440488  0.49610079  0.83039223    -0.14500
C657        C  0.75867227  0.49857920  0.83079526    -0.16000
C658        C  0.68396181  0.99751557  0.16358783     0.79000
N659        N  0.66476574  0.99840361  0.12880476    -0.79300
C660        C  0.62584431  0.48938697  0.12867762     0.81500
N661        N  0.60650824  0.48795808  0.16342654    -0.79200
C662        C  0.62558381  0.48922645  0.19821155     0.81600
N663        N  0.66451849  0.99822613  0.19832726    -0.80900
C664        C  0.80000656  0.99266314  0.16426789     0.79000
N665        N  0.81917663  0.99217029  0.19907019    -0.79300
C666        C  0.85712424  0.50610441  0.19931338     0.81500
N667        N  0.87650285  0.50755305  0.16459956    -0.79200
C668        C  0.85750182  0.50599924  0.12979090     0.81600
N669        N  0.81949824  0.99215607  0.12955956    -0.80900
C670        C  0.99737680  0.69419850  0.16435547     0.79000
N671        N  0.99690789  0.67505712  0.19918039    -0.79300
C672        C  0.99618176  0.63641607  0.19924744     0.81500
N673        N  0.99590335  0.61699300  0.16453260    -0.79200
C674        C  0.99635142  0.63606587  0.12975188     0.81600
N675        N  0.99706486  0.67467553  0.12965608    -0.80900
C676        C  0.00086901  0.81028943  0.16351951     0.79000
N677        N  0.00140713  0.82943994  0.12870610    -0.79300
C678        C  0.00317655  0.86804875  0.12863267     0.81500
N679        N  0.00401463  0.88744907  0.16335875    -0.79200
C680        C  0.00321814  0.86837275  0.19814130     0.81600
N681        N  0.00145098  0.82979705  0.19821633    -0.80900
N682        N  0.57539702  0.51241186  0.04251211    -0.07300
N683        N  0.59629735  0.52366670  0.07272192    -0.59400
N684        N  0.57344811  0.98217251  0.28479628    -0.07000
N685        N  0.59257444  0.96870820  0.25413691    -0.61500
N686        N  0.57527130  0.51235172  0.28485130    -0.06600
N687        N  0.59599012  0.52357629  0.25445076    -0.59400
N688        N  0.57344782  0.98225853  0.04266206    -0.06300
N689        N  0.59272315  0.96885504  0.07302792    -0.61900
C690        C  0.60484248  0.49091658  0.09148215     0.94900
C691        C  0.60440519  0.49080469  0.23539827     0.94700
N692        N  0.98054353  0.91878672  0.28481074    -0.07500
N693        N  0.96908243  0.89829398  0.25433553    -0.60000
N694        N  0.50942389  0.91979894  0.04263914    -0.05600
N695        N  0.52232594  0.90007242  0.07292550    -0.61300
N696        N  0.98054928  0.91861866  0.04248527    -0.07500
N697        N  0.96908909  0.89791219  0.07274803    -0.60300
N698        N  0.50950087  0.91981972  0.28479927    -0.05200
N699        N  0.52246052  0.90027066  0.25419419    -0.61300
Mn700      Mn  0.54239260  0.95005765  0.33040126     1.18400
C701        C  0.00177445  0.88951390  0.23532176     0.97000
C702        C  0.00177675  0.88895893  0.09141540     0.97600
N703        N  0.51864278  0.58157272  0.28490527    -0.07500
N704        N  0.53349673  0.59944025  0.25419257    -0.63800
N705        N  0.97594706  0.58444130  0.04332094    -0.06300
N706        N  0.96345990  0.60413152  0.07403998    -0.64500
N707        N  0.51865407  0.58152174  0.04320379    -0.07000
N708        N  0.53349317  0.59920729  0.07405153    -0.64100
N709        N  0.97582516  0.58464426  0.28543765    -0.06200
N710        N  0.96331187  0.60455349  0.25509738    -0.64800
Mn711      Mn  0.54803893  0.54783079  0.33053199     1.10700
C712        C  0.99554178  0.61554237  0.23650400     0.98200
C713        C  0.99570441  0.61493414  0.09255404     0.98300
N714        N  0.91206061  0.97599517  0.04320530    -0.07100
N715        N  0.89423227  0.96127255  0.07400516    -0.62400
N716        N  0.91043214  0.52359978  0.28532188    -0.06400
N717        N  0.89150331  0.53729638  0.25482169    -0.59200
N718        N  0.91193214  0.97602006  0.28501720    -0.07700
N719        N  0.89390417  0.96128713  0.25435391    -0.62000
N720        N  0.91067452  0.52350764  0.04352194    -0.06700
N721        N  0.89196593  0.53718567  0.07439329    -0.59200
Mn722      Mn  0.94540477  0.94632406  0.33054522     1.20200
Mn723      Mn  0.94228660  0.55505271  0.33105932     1.10100
Cl724      Cl  0.99178168  0.50206773  0.33060819    -0.87100
C725        C  0.87873020  0.50566442  0.09260812     0.95200
C726        C  0.87806438  0.50579288  0.23657204     0.95000
C727        C  0.99934612  0.76941408  0.16372726    -0.14500
C728        C  0.99832666  0.73509105  0.16414141    -0.16000
C729        C  0.72482741  0.99574883  0.16371877    -0.14500
C730        C  0.75913671  0.99432666  0.16408971    -0.16000
C731        C  0.68396179  0.99751553  0.49692108     0.79000
N732        N  0.66476570  0.99840364  0.46213802    -0.79300
C733        C  0.62584433  0.48938702  0.46201096     0.81500
N734        N  0.60650829  0.48795815  0.49675988    -0.79200
C735        C  0.62558387  0.48922651  0.53154490     0.81600
N736        N  0.66451854  0.99822616  0.53166054    -0.80900
C737        C  0.80000661  0.99266311  0.49760118     0.79000
N738        N  0.81917666  0.99217029  0.53240346    -0.79300
C739        C  0.85712425  0.50610430  0.53264673     0.81500
N740        N  0.87650285  0.50755285  0.49793289    -0.79200
C741        C  0.85750182  0.50599921  0.46312421     0.81600
N742        N  0.81949824  0.99215607  0.46289285    -0.80900
C743        C  0.99737682  0.69419843  0.49768881     0.79000
N744        N  0.99690798  0.67505711  0.53251373    -0.79300
C745        C  0.99618183  0.63641604  0.53258079     0.81500
N746        N  0.99590346  0.61699298  0.49786598    -0.79200
C747        C  0.99635146  0.63606578  0.46308524     0.81600
N748        N  0.99706476  0.67467549  0.46298943    -0.80900
C749        C  0.00086904  0.81028938  0.49685278     0.79000
N750        N  0.00140723  0.82943987  0.46203940    -0.79300
C751        C  0.00317664  0.86804873  0.46196601     0.81500
N752        N  0.00401472  0.88744895  0.49669216    -0.79200
C753        C  0.00321808  0.86837265  0.53147465     0.81600
N754        N  0.00145085  0.82979690  0.53154964    -0.80900
N755        N  0.57539706  0.51241187  0.37584547    -0.07300
N756        N  0.59629738  0.52366666  0.40605525    -0.59400
N757        N  0.57344808  0.98217243  0.61812955    -0.07000
N758        N  0.59257436  0.96870815  0.58747015    -0.61500
N759        N  0.57527127  0.51235168  0.61818458    -0.06600
N760        N  0.59599016  0.52357621  0.58778414    -0.59400
N761        N  0.57344783  0.98225860  0.37599535    -0.06300
N762        N  0.59272302  0.96885510  0.40636129    -0.61900
C763        C  0.60484253  0.49091656  0.42481551     0.94900
C764        C  0.60440533  0.49080466  0.56873162     0.94700
N765        N  0.98054356  0.91878681  0.61814405    -0.07500
N766        N  0.96908239  0.89829405  0.58766888    -0.60000
N767        N  0.50942390  0.91979903  0.37597249    -0.05600
N768        N  0.52232592  0.90007253  0.40625883    -0.61300
N769        N  0.98054926  0.91861854  0.37581858    -0.07500
N770        N  0.96908914  0.89791206  0.40608133    -0.60300
N771        N  0.50950088  0.91981976  0.61813262    -0.05200
N772        N  0.52246054  0.90027075  0.58752758    -0.61300
Mn773      Mn  0.54239252  0.95005758  0.66373462     1.18400
C774        C  0.00177440  0.88951377  0.56865516     0.97000
C775        C  0.00177680  0.88895894  0.42474880     0.97600
N776        N  0.51864277  0.58157268  0.61823860    -0.07500
N777        N  0.53349670  0.59944025  0.58752592    -0.63800
N778        N  0.97594703  0.58444130  0.37665427    -0.06300
N779        N  0.96345994  0.60413139  0.40737335    -0.64500
N780        N  0.51865408  0.58152184  0.37653701    -0.07000
N781        N  0.53349319  0.59920735  0.40738482    -0.64100
N782        N  0.97582528  0.58464427  0.61877100    -0.06200
N783        N  0.96331196  0.60455354  0.58843075    -0.64800
Mn784      Mn  0.54803893  0.54783069  0.66386532     1.10700
C785        C  0.99554186  0.61554236  0.56983733     0.98200
C786        C  0.99570445  0.61493401  0.42588747     0.98300
N787        N  0.91206057  0.97599514  0.37653862    -0.07100
N788        N  0.89423228  0.96127246  0.40733851    -0.62400
N789        N  0.91043219  0.52359986  0.61865515    -0.06400
N790        N  0.89150323  0.53729640  0.58815502    -0.59200
N791        N  0.91193210  0.97601998  0.61835050    -0.07700
N792        N  0.89390418  0.96128710  0.58768724    -0.62000
N793        N  0.91067454  0.52350769  0.37685528    -0.06700
N794        N  0.89196591  0.53718568  0.40772651    -0.59200
Mn795      Mn  0.94540482  0.94632413  0.66387858     1.20200
Mn796      Mn  0.94228667  0.55505274  0.66439266     1.10100
Cl797      Cl  0.99178178  0.50206763  0.66394155    -0.87100
C798        C  0.87873013  0.50566444  0.42594143     0.95200
C799        C  0.87806436  0.50579284  0.56990540     0.95000
C800        C  0.99934620  0.76941399  0.49706054    -0.14500
C801        C  0.99832674  0.73509101  0.49747473    -0.16000
C802        C  0.72482745  0.99574890  0.49705194    -0.14500
C803        C  0.75913672  0.99432674  0.49742296    -0.16000
C804        C  0.68396178  0.99751557  0.83025446     0.79000
N805        N  0.66476574  0.99840355  0.79547138    -0.79300
C806        C  0.62584434  0.48938709  0.79534430     0.81500
N807        N  0.60650837  0.48795803  0.83009324    -0.79200
C808        C  0.62558398  0.48922639  0.86487826     0.81600
N809        N  0.66451852  0.99822627  0.86499390    -0.80900
C810        C  0.80000661  0.99266321  0.83093455     0.79000
N811        N  0.81917668  0.99217038  0.86573683    -0.79300
C812        C  0.85712421  0.50610434  0.86598005     0.81500
N813        N  0.87650280  0.50755297  0.83126625    -0.79200
C814        C  0.85750178  0.50599929  0.79645754     0.81600
N815        N  0.81949821  0.99215616  0.79622621    -0.80900
C816        C  0.99737674  0.69419847  0.83102218     0.79000
N817        N  0.99690801  0.67505710  0.86584711    -0.79300
C818        C  0.99618180  0.63641605  0.86591415     0.81500
N819        N  0.99590332  0.61699299  0.83119932    -0.79200
C820        C  0.99635144  0.63606584  0.79641860     0.81600
N821        N  0.99706479  0.67467550  0.79632280    -0.80900
C822        C  0.00086889  0.81028936  0.83018606     0.79000
N823        N  0.00140708  0.82943990  0.79537272    -0.79300
C824        C  0.00317659  0.86804871  0.79529931     0.81500
N825        N  0.00401463  0.88744898  0.83002548    -0.79200
C826        C  0.00321814  0.86837263  0.86480795     0.81600
N827        N  0.00145091  0.82979693  0.86488296    -0.80900
N828        N  0.57539692  0.51241183  0.70917877    -0.07300
N829        N  0.59629727  0.52366669  0.73938850    -0.59400
N830        N  0.57344813  0.98217244  0.95146290    -0.07000
N831        N  0.59257442  0.96870819  0.92080354    -0.61500
N832        N  0.57527136  0.51235175  0.95151793    -0.06600
N833        N  0.59599026  0.52357627  0.92111748    -0.59400
N834        N  0.57344781  0.98225861  0.70932872    -0.06300
N835        N  0.59272310  0.96885512  0.73969461    -0.61900
C836        C  0.60484241  0.49091663  0.75814883     0.94900
C837        C  0.60440542  0.49080468  0.90206497     0.94700
N838        N  0.98054360  0.91878679  0.95147743    -0.07500
N839        N  0.96908243  0.89829395  0.92100221    -0.60000
N840        N  0.50942383  0.91979903  0.70930585    -0.05600
N841        N  0.52232587  0.90007238  0.73959217    -0.61300
N842        N  0.98054925  0.91861858  0.70915196    -0.07500
N843        N  0.96908911  0.89791217  0.73941472    -0.60300
N844        N  0.50950098  0.91981973  0.95146595    -0.05200
N845        N  0.52246058  0.90027073  0.92086093    -0.61300
Mn846      Mn  0.54239257  0.95005759  0.99706796     1.18400
C847        C  0.00177445  0.88951382  0.90198852     0.97000
C848        C  0.00177676  0.88895893  0.75808215     0.97600
N849        N  0.51864280  0.58157272  0.95157197    -0.07500
N850        N  0.53349667  0.59944020  0.92085925    -0.63800
N851        N  0.97594701  0.58444138  0.70998761    -0.06300
N852        N  0.96345987  0.60413149  0.74070672    -0.64500
N853        N  0.51865400  0.58152176  0.70987037    -0.07000
N854        N  0.53349318  0.59920733  0.74071817    -0.64100
N855        N  0.97582521  0.58464430  0.95210436    -0.06200
N856        N  0.96331189  0.60455344  0.92176405    -0.64800
Mn857      Mn  0.54803900  0.54783075  0.99719869     1.10700
C858        C  0.99554179  0.61554231  0.90317064     0.98200
C859        C  0.99570440  0.61493409  0.75922080     0.98300
N860        N  0.91206057  0.97599508  0.70987200    -0.07100
N861        N  0.89423233  0.96127247  0.74067190    -0.62400
N862        N  0.91043222  0.52359980  0.95198851    -0.06400
N863        N  0.89150326  0.53729640  0.92148834    -0.59200
N864        N  0.91193219  0.97602000  0.95168385    -0.07700
N865        N  0.89390429  0.96128705  0.92102054    -0.62000
N866        N  0.91067458  0.52350760  0.71018863    -0.06700
N867        N  0.89196599  0.53718564  0.74105992    -0.59200
Mn868      Mn  0.94540489  0.94632421  0.99721192     1.20200
Mn869      Mn  0.94228670  0.55505277  0.99772601     1.10100
Cl870      Cl  0.99178178  0.50206764  0.99727490    -0.87100
C871        C  0.87873013  0.50566442  0.75927477     0.95200
C872        C  0.87806434  0.50579286  0.90323876     0.95000
C873        C  0.99934600  0.76941403  0.83039378    -0.14500
C874        C  0.99832655  0.73509100  0.83080806    -0.16000
C875        C  0.72482745  0.99574898  0.83038536    -0.14500
C876        C  0.75913670  0.99432684  0.83075638    -0.16000
loop_ 
_geom_bond_atom_site_label_1 
_geom_bond_atom_site_label_2 
_geom_bond_distance 
_geom_bond_site_symmetry_2 
_ccdc_geom_bond_type 
C1            N2   1.359       .  A
C1            N6   1.358       .  A
C1           C72   1.439       .  S
N2          C222   1.359       .  A
C3            N4   1.357       .  A
C3          N221   1.359       .  A
C3           C33   1.461       .  S
N4            C5   1.357       .  A
C5          N225   1.357       .  A
C5           C34   1.459       .  S
N6          C224   1.358       .  A
C7            N8   1.359       .  A
C7           N12   1.358       .  A
C7           C73   1.439       .  S
N8          C228   1.359       .  A
C9           N10   1.356       .  A
C9          N227   1.359       .  A
C9           C69   1.461       .  S
N10          C11   1.356       .  A
C11         N231   1.357       .  A
C11          C68   1.459       .  S
N12         C230   1.358       .  A
C13          N14   1.359       .  A
C13          N18   1.358       .  A
C13          C71   1.439       .  S
N14          C15   1.359       .  A
C15          N16   1.357       .  A
C15          C55   1.462       .  S
N16          C17   1.356       .  A
C17          N18   1.358       .  A
C17          C56   1.460       .  S
C19          N20   1.359       .  A
C19          N24   1.358       .  A
C19          C70   1.439       .  S
N20          C21   1.359       .  A
C21          N22   1.357       .  A
C21          C45   1.462       .  S
N22          C23   1.357       .  A
C23          N24   1.358       .  A
C23          C44   1.460       .  S
N25          N26   1.322       .  A
N25         N250   1.316   1_545  A
N25        Mn200   2.208   1_554  S
N26          C33   1.352       .  A
N27          N28   1.321       .  A
N27         N248   1.316       .  A
N27         Mn43   2.205       .  S
N28         C253   1.352       .  A
N29          N30   1.321       .  A
N29         N246   1.316   1_545  A
N29         Mn54   2.205       .  S
N30          C34   1.352       .  A
N31          N32   1.322       .  A
N31         N244   1.316       .  A
N31        Mn189   2.207   1_554  S
N32         C252   1.352       .  A
C33         N251   1.351   1_545  A
C34         N247   1.350   1_545  A
N35          N36   1.322       .  A
N35         N479   1.316       .  A
N35         Mn65   2.205       .  S
N36          C44   1.352       .  A
N37          N38   1.321       .  A
N37         N477   1.316   1_455  A
N37        Mn189   2.204   1_554  S
N38         C483   1.351   1_455  A
N39          N40   1.322       .  A
N39         N475   1.316       .  A
N39        Mn211   2.208   1_554  S
N40          C45   1.352       .  A
N41          N42   1.321       .  A
N41         N473   1.316   1_455  A
N41         Mn43   2.202       .  S
N42         C482   1.351   1_455  A
Mn43        N104   2.207       .  S
Mn43        N110   2.204       .  S
Mn43       Cl724   2.548   1_455  S
C44         N480   1.350       .  A
C45         N476   1.351       .  A
N46          N47   1.320       .  A
N46         N490   1.316   1_455  A
N46         Mn54   2.202       .  S
N47         C493   1.351   1_455  A
N48          N49   1.320       .  A
N48         N488   1.316       .  A
N48        Mn212   2.201   1_554  S
N49          C56   1.351       .  A
N50          N51   1.320       .  A
N50         N486   1.316   1_455  A
N50        Mn200   2.199   1_554  S
N51         C494   1.350   1_455  A
N52          N53   1.320       .  A
N52         N484   1.316       .  A
N52         Mn66   2.202       .  S
N53          C55   1.351       .  A
Mn54         N98   2.208       .  S
Mn54        N123   2.199       .  S
Mn54       Cl505   2.549   1_455  S
C55         N485   1.352       .  A
C56         N489   1.351       .  A
N57          N58   1.320       .  A
N57         N282   1.316       .  A
N57        Mn211   2.198   1_554  S
N58         C287   1.350       .  A
N59          N60   1.321       .  A
N59         N280   1.316   1_545  A
N59         Mn66   2.203       .  S
N60          C69   1.351       .  A
N61          N62   1.320       .  A
N61         N278   1.316       .  A
N61         Mn65   2.201       .  S
N62         C288   1.351       .  A
N63          N64   1.321       .  A
N63         N276   1.316   1_545  A
N63        Mn212   2.202   1_554  S
N64          C68   1.351       .  A
Mn65        N112   2.208       .  S
Mn65        N130   2.198       .  S
Mn65       Cl286   2.550       .  S
Mn66        N121   2.201       .  S
Mn66        N136   2.202       .  S
Mn66        Cl67   2.550       .  S
Cl67       Mn700   2.550   1_545  S
Cl67       Mn492   2.548       .  S
Cl67       Mn284   2.548   1_545  S
C68         N277   1.351   1_545  A
C69         N281   1.351   1_545  A
C70          C71   1.208       .  T
C72          C73   1.208       .  T
C74          N75   1.359       .  A
C74          N79   1.358       .  A
C74         C145   1.439       .  S
N75         C295   1.359       .  A
C76         N294   1.359       .  A
C76          N77   1.357       .  A
C76         C106   1.461       .  S
N77          C78   1.357       .  A
C78         N298   1.357       .  A
C78         C107   1.459       .  S
N79         C297   1.358       .  A
C80          N81   1.359       .  A
C80          N85   1.358       .  A
C80         C146   1.439       .  S
N81         C301   1.359       .  A
C82         N300   1.359       .  A
C82          N83   1.356       .  A
C82         C142   1.461       .  S
N83          C84   1.356       .  A
C84         N304   1.357       .  A
C84         C141   1.459       .  S
N85         C303   1.358       .  A
C86          N87   1.359       .  A
C86          N91   1.358       .  A
C86         C144   1.439       .  S
N87          C88   1.359       .  A
C88          N89   1.357       .  A
C88         C128   1.462       .  S
N89          C90   1.356       .  A
C90          N91   1.358       .  A
C90         C129   1.460       .  S
C92          N93   1.359       .  A
C92          N97   1.358       .  A
C92         C143   1.439       .  S
N93          C94   1.359       .  A
C94          N95   1.357       .  A
C94         C118   1.462       .  S
N95          C96   1.357       .  A
C96          N97   1.358       .  A
C96         C117   1.460       .  S
N98          N99   1.322       .  A
N98         N323   1.316   1_545  A
N99         C106   1.352       .  A
N100        N321   1.316       .  A
N100        N101   1.321       .  A
N100       Mn116   2.205       .  S
N101        C326   1.352       .  A
N102        N319   1.316   1_545  A
N102        N103   1.321       .  A
N102       Mn127   2.205       .  S
N103        C107   1.352       .  A
N104        N317   1.316       .  A
N104        N105   1.322       .  A
N105        C325   1.352       .  A
C106        N324   1.351   1_545  A
C107        N320   1.350   1_545  A
N108        N552   1.316       .  A
N108        N109   1.322       .  A
N108       Mn138   2.205       .  S
N109        C117   1.352       .  A
N110        N111   1.321       .  A
N110        N550   1.316   1_455  A
N111        C556   1.351   1_455  A
N112        N548   1.316       .  A
N112        N113   1.322       .  A
N113        C118   1.352       .  A
N114        N546   1.316   1_455  A
N114        N115   1.321       .  A
N114       Mn116   2.202       .  S
N115        C555   1.351   1_455  A
Mn116       N177   2.207       .  S
Mn116       N183   2.204       .  S
Mn116      Cl797   2.548   1_455  S
C117        N553   1.350       .  A
C118        N549   1.351       .  A
N119        N120   1.320       .  A
N119        N563   1.316   1_455  A
N119       Mn127   2.202       .  S
N120        C566   1.351   1_455  A
N121        N561   1.316       .  A
N121        N122   1.320       .  A
N122        C129   1.351       .  A
N123        N559   1.316   1_455  A
N123        N124   1.320       .  A
N124        C567   1.350   1_455  A
N125        N557   1.316       .  A
N125        N126   1.320       .  A
N125       Mn139   2.202       .  S
N126        C128   1.351       .  A
Mn127       N171   2.208       .  S
Mn127       N196   2.199       .  S
Mn127      Cl578   2.549   1_455  S
C128        N558   1.352       .  A
C129        N562   1.351       .  A
N130        N131   1.320       .  A
N130        N355   1.316       .  A
N131        C360   1.350       .  A
N132        N133   1.321       .  A
N132        N353   1.316   1_545  A
N132       Mn139   2.203       .  S
N133        C142   1.351       .  A
N134        N351   1.316       .  A
N134        N135   1.320       .  A
N134       Mn138   2.201       .  S
N135        C361   1.351       .  A
N136        N349   1.316   1_545  A
N136        N137   1.321       .  A
N137        C141   1.351       .  A
Mn138       N185   2.208       .  S
Mn138       N203   2.198       .  S
Mn138      Cl359   2.550       .  S
Mn139       N194   2.201       .  S
Mn139       N209   2.202       .  S
Mn139      Cl140   2.550       .  S
Cl140      Mn773   2.550   1_545  S
Cl140      Mn565   2.548       .  S
Cl140      Mn357   2.548   1_545  S
C141        N350   1.351   1_545  A
C142        N354   1.351   1_545  A
C143        C144   1.208       .  T
C145        C146   1.208       .  T
C147        N148   1.359       .  A
C147        N152   1.358       .  A
C147        C218   1.439       .  S
N148        C368   1.359       .  A
C149        N367   1.359       .  A
C149        N150   1.357       .  A
C149        C179   1.461       .  S
N150        C151   1.357       .  A
C151        N371   1.357       .  A
C151        C180   1.459       .  S
N152        C370   1.358       .  A
C153        N154   1.359       .  A
C153        N158   1.358       .  A
C153        C219   1.439       .  S
N154        C374   1.359       .  A
C155        N373   1.359       .  A
C155        N156   1.356       .  A
C155        C215   1.461       .  S
N156        C157   1.356       .  A
C157        N377   1.357       .  A
C157        C214   1.459       .  S
N158        C376   1.358       .  A
C159        N160   1.359       .  A
C159        N164   1.358       .  A
C159        C217   1.439       .  S
N160        C161   1.359       .  A
C161        N162   1.357       .  A
C161        C201   1.462       .  S
N162        C163   1.356       .  A
C163        N164   1.358       .  A
C163        C202   1.460       .  S
C165        N166   1.359       .  A
C165        N170   1.358       .  A
C165        C216   1.439       .  S
N166        C167   1.359       .  A
C167        N168   1.357       .  A
C167        C191   1.462       .  S
N168        C169   1.357       .  A
C169        N170   1.358       .  A
C169        C190   1.460       .  S
N171        N172   1.322       .  A
N171        N396   1.316   1_545  A
N172        C179   1.352       .  A
N173        N394   1.316       .  A
N173        N174   1.321       .  A
N173       Mn189   2.205       .  S
N174        C399   1.352       .  A
N175        N392   1.316   1_545  A
N175        N176   1.321       .  A
N175       Mn200   2.205       .  S
N176        C180   1.352       .  A
N177        N390   1.316       .  A
N177        N178   1.322       .  A
N178        C398   1.352       .  A
C179        N397   1.351   1_545  A
C180        N393   1.350   1_545  A
N181        N625   1.316       .  A
N181        N182   1.322       .  A
N181       Mn211   2.205       .  S
N182        C190   1.352       .  A
N183        N184   1.321       .  A
N183        N623   1.316   1_455  A
N184        C629   1.351   1_455  A
N185        N621   1.316       .  A
N185        N186   1.322       .  A
N186        C191   1.352       .  A
N187        N619   1.316   1_455  A
N187        N188   1.321       .  A
N187       Mn189   2.202       .  S
N188        C628   1.351   1_455  A
Mn189      Cl870   2.548   1_455  S
C190        N626   1.350       .  A
C191        N622   1.351       .  A
N192        N193   1.320       .  A
N192        N636   1.316   1_455  A
N192       Mn200   2.202       .  S
N193        C639   1.351   1_455  A
N194        N634   1.316       .  A
N194        N195   1.320       .  A
N195        C202   1.351       .  A
N196        N632   1.316   1_455  A
N196        N197   1.320       .  A
N197        C640   1.350   1_455  A
N198        N630   1.316       .  A
N198        N199   1.320       .  A
N198       Mn212   2.202       .  S
N199        C201   1.351       .  A
Mn200      Cl651   2.549   1_455  S
C201        N631   1.352       .  A
C202        N635   1.351       .  A
N203        N204   1.320       .  A
N203        N428   1.316       .  A
N204        C433   1.350       .  A
N205        N206   1.321       .  A
N205        N426   1.316   1_545  A
N205       Mn212   2.203       .  S
N206        C215   1.351       .  A
N207        N424   1.316       .  A
N207        N208   1.320       .  A
N207       Mn211   2.201       .  S
N208        C434   1.351       .  A
N209        N422   1.316   1_545  A
N209        N210   1.321       .  A
N210        C214   1.351       .  A
Mn211      Cl432   2.550       .  S
Mn212      Cl213   2.550       .  S
Cl213      Mn846   2.550   1_545  S
Cl213      Mn638   2.548       .  S
Cl213      Mn430   2.548   1_545  S
C214        N423   1.351   1_545  A
C215        N427   1.351   1_545  A
C216        C217   1.208       .  T
C218        C219   1.208       .  T
C220        N221   1.359       .  A
C220        N225   1.358       .  A
C220        C291   1.438       .  S
C222        N223   1.357       .  A
C222        C252   1.462       .  S
N223        C224   1.357       .  A
C224        C253   1.460       .  S
C226        N227   1.359       .  A
C226        N231   1.358       .  A
C226        C292   1.438       .  S
C228        N229   1.357       .  A
C228        C288   1.462       .  S
N229        C230   1.357       .  A
C230        C287   1.461       .  S
C232        N233   1.359       .  A
C232        N237   1.358       .  A
C232        C290   1.439       .  S
N233        C234   1.359       .  A
C234        N235   1.357       .  A
C234        C274   1.462       .  S
N235        C236   1.357       .  A
C236        N237   1.358       .  A
C236        C275   1.460       .  S
C238        N239   1.359       .  A
C238        N243   1.358       .  A
C238        C289   1.439       .  S
N239        C240   1.359       .  A
C240        N241   1.357       .  A
C240        C264   1.462       .  S
N241        C242   1.356       .  A
C242        N243   1.358       .  A
C242        C263   1.460       .  S
N244        N245   1.320       .  A
N244       Mn419   2.202   1_554  S
N245        C252   1.351       .  A
N246        N247   1.320       .  A
N246       Mn262   2.199       .  S
N248        N249   1.320       .  A
N248       Mn273   2.201       .  S
N249        C253   1.351       .  A
N250        N251   1.320       .  A
N250       Mn408   2.200   1_554  S
N254        N698   1.316       .  A
N254        N255   1.321       .  A
N254       Mn284   2.203       .  S
N255        C263   1.351       .  A
N256        N257   1.322       .  A
N256        N696   1.316   1_455  A
N256       Mn408   2.207   1_554  S
N257        C702   1.352       .  A
N258        N694   1.316       .  A
N258        N259   1.321       .  A
N258       Mn430   2.206   1_554  S
N259        C264   1.352       .  A
N260        N692   1.316   1_455  A
N260        N261   1.321       .  A
N260       Mn262   2.205       .  S
N261        C701   1.352       .  A
Mn262       N323   2.200       .  S
Mn262       N329   2.207       .  S
Mn262      Cl505   2.549   1_465  S
C263        N699   1.351       .  A
C264        N695   1.351       .  A
N265        N266   1.321       .  A
N265        N709   1.316   1_455  A
N265       Mn273   2.204       .  S
N266        C712   1.351   1_455  A
N267        N707   1.316       .  A
N267        N268   1.320       .  A
N267       Mn431   2.199   1_554  S
N268        C275   1.350       .  A
N269        N705   1.316   1_455  A
N269        N270   1.321       .  A
N269       Mn419   2.203   1_554  S
N270        C713   1.351   1_455  A
N271        N703   1.316       .  A
N271        N272   1.320       .  A
N271       Mn285   2.200       .  S
N272        C274   1.351       .  A
Mn273       N317   2.202       .  S
Mn273       N342   2.203       .  S
Mn273      Cl724   2.550   1_455  S
C274        N704   1.352       .  A
C275        N708   1.352       .  A
N276        N277   1.321       .  A
N276       Mn430   2.201   1_554  S
N278        N279   1.322       .  A
N278       Mn285   2.209       .  S
N279        C288   1.352       .  A
N280        N281   1.321       .  A
N280       Mn284   2.204       .  S
N282        N283   1.322       .  A
N282       Mn431   2.208   1_554  S
N283        C287   1.352       .  A
Mn284       N331   2.206       .  S
Mn284       N349   2.201       .  S
Mn285       N340   2.199       .  S
Mn285       N355   2.208       .  S
Mn285      Cl286   2.549       .  S
Cl286      Mn481   2.549       .  S
Cl286      Mn711   2.549       .  S
C289        C290   1.208       .  T
C291        C292   1.207       .  T
C293        N294   1.359       .  A
C293        N298   1.358       .  A
C293        C364   1.438       .  S
C295        N296   1.357       .  A
C295        C325   1.462       .  S
N296        C297   1.357       .  A
C297        C326   1.460       .  S
C299        N300   1.359       .  A
C299        N304   1.358       .  A
C299        C365   1.438       .  S
C301        N302   1.357       .  A
C301        C361   1.462       .  S
N302        C303   1.357       .  A
C303        C360   1.461       .  S
C305        N306   1.359       .  A
C305        N310   1.358       .  A
C305        C363   1.439       .  S
N306        C307   1.359       .  A
C307        N308   1.357       .  A
C307        C347   1.462       .  S
N308        C309   1.357       .  A
C309        N310   1.358       .  A
C309        C348   1.460       .  S
C311        N312   1.359       .  A
C311        N316   1.358       .  A
C311        C362   1.439       .  S
N312        C313   1.359       .  A
C313        N314   1.357       .  A
C313        C337   1.462       .  S
N314        C315   1.356       .  A
C315        N316   1.358       .  A
C315        C336   1.460       .  S
N317        N318   1.320       .  A
N318        C325   1.351       .  A
N319        N320   1.320       .  A
N319       Mn335   2.199       .  S
N321        N322   1.320       .  A
N321       Mn346   2.201       .  S
N322        C326   1.351       .  A
N323        N324   1.320       .  A
N327        N771   1.316       .  A
N327        N328   1.321       .  A
N327       Mn357   2.203       .  S
N328        C336   1.351       .  A
N329        N330   1.322       .  A
N329        N769   1.316   1_455  A
N330        C775   1.352       .  A
N331        N767   1.316       .  A
N331        N332   1.321       .  A
N332        C337   1.352       .  A
N333        N765   1.316   1_455  A
N333        N334   1.321       .  A
N333       Mn335   2.205       .  S
N334        C774   1.352       .  A
Mn335       N396   2.200       .  S
Mn335       N402   2.207       .  S
Mn335      Cl578   2.549   1_465  S
C336        N772   1.351       .  A
C337        N768   1.351       .  A
N338        N339   1.321       .  A
N338        N782   1.316   1_455  A
N338       Mn346   2.204       .  S
N339        C785   1.351   1_455  A
N340        N780   1.316       .  A
N340        N341   1.320       .  A
N341        C348   1.350       .  A
N342        N778   1.316   1_455  A
N342        N343   1.321       .  A
N343        C786   1.351   1_455  A
N344        N776   1.316       .  A
N344        N345   1.320       .  A
N344       Mn358   2.200       .  S
N345        C347   1.351       .  A
Mn346       N390   2.202       .  S
Mn346       N415   2.203       .  S
Mn346      Cl797   2.550   1_455  S
C347        N777   1.352       .  A
C348        N781   1.352       .  A
N349        N350   1.321       .  A
N351        N352   1.322       .  A
N351       Mn358   2.209       .  S
N352        C361   1.352       .  A
N353        N354   1.321       .  A
N353       Mn357   2.204       .  S
N355        N356   1.322       .  A
N356        C360   1.352       .  A
Mn357       N404   2.206       .  S
Mn357       N422   2.201       .  S
Mn358       N413   2.199       .  S
Mn358       N428   2.208       .  S
Mn358      Cl359   2.549       .  S
Cl359      Mn554   2.549       .  S
Cl359      Mn784   2.549       .  S
C362        C363   1.208       .  T
C364        C365   1.207       .  T
C366        N367   1.359       .  A
C366        N371   1.358       .  A
C366        C437   1.438       .  S
C368        N369   1.357       .  A
C368        C398   1.462       .  S
N369        C370   1.357       .  A
C370        C399   1.460       .  S
C372        N373   1.359       .  A
C372        N377   1.358       .  A
C372        C438   1.438       .  S
C374        N375   1.357       .  A
C374        C434   1.462       .  S
N375        C376   1.357       .  A
C376        C433   1.461       .  S
C378        N379   1.359       .  A
C378        N383   1.358       .  A
C378        C436   1.439       .  S
N379        C380   1.359       .  A
C380        N381   1.357       .  A
C380        C420   1.462       .  S
N381        C382   1.357       .  A
C382        N383   1.358       .  A
C382        C421   1.460       .  S
C384        N385   1.359       .  A
C384        N389   1.358       .  A
C384        C435   1.439       .  S
N385        C386   1.359       .  A
C386        N387   1.357       .  A
C386        C410   1.462       .  S
N387        C388   1.356       .  A
C388        N389   1.358       .  A
C388        C409   1.460       .  S
N390        N391   1.320       .  A
N391        C398   1.351       .  A
N392        N393   1.320       .  A
N392       Mn408   2.199       .  S
N394        N395   1.320       .  A
N394       Mn419   2.201       .  S
N395        C399   1.351       .  A
N396        N397   1.320       .  A
N400        N844   1.316       .  A
N400        N401   1.321       .  A
N400       Mn430   2.203       .  S
N401        C409   1.351       .  A
N402        N403   1.322       .  A
N402        N842   1.316   1_455  A
N403        C848   1.352       .  A
N404        N840   1.316       .  A
N404        N405   1.321       .  A
N405        C410   1.352       .  A
N406        N838   1.316   1_455  A
N406        N407   1.321       .  A
N406       Mn408   2.205       .  S
N407        C847   1.352       .  A
Mn408      Cl651   2.549   1_465  S
C409        N845   1.351       .  A
C410        N841   1.351       .  A
N411        N412   1.321       .  A
N411        N855   1.316   1_455  A
N411       Mn419   2.204       .  S
N412        C858   1.351   1_455  A
N413        N853   1.316       .  A
N413        N414   1.320       .  A
N414        C421   1.350       .  A
N415        N851   1.316   1_455  A
N415        N416   1.321       .  A
N416        C859   1.351   1_455  A
N417        N849   1.316       .  A
N417        N418   1.320       .  A
N417       Mn431   2.200       .  S
N418        C420   1.351       .  A
Mn419      Cl870   2.550   1_455  S
C420        N850   1.352       .  A
C421        N854   1.352       .  A
N422        N423   1.321       .  A
N424        N425   1.322       .  A
N424       Mn431   2.209       .  S
N425        C434   1.352       .  A
N426        N427   1.321       .  A
N426       Mn430   2.204       .  S
N428        N429   1.322       .  A
N429        C433   1.352       .  A
Mn431      Cl432   2.549       .  S
Cl432      Mn627   2.549       .  S
Cl432      Mn857   2.549       .  S
C435        C436   1.208       .  T
C437        C438   1.207       .  T
C439        N440   1.359       .  A
C439        N444   1.358       .  A
C439        C510   1.439       .  S
N440        C660   1.359       .  A
C441        N659   1.359   1_545  A
C441        N442   1.356       .  A
C441        C471   1.461       .  S
N442        C443   1.356   1_545  A
C443        N663   1.357       .  A
C443        C472   1.459   1_565  S
N444        C662   1.358       .  A
C445        N446   1.359       .  A
C445        N450   1.358       .  A
C445        C511   1.439       .  S
N446        C666   1.359       .  A
C447        N665   1.359       .  A
C447        N448   1.357       .  A
C447        C507   1.461       .  S
N448        C449   1.357       .  A
C449        N669   1.357       .  A
C449        C506   1.459       .  S
N450        C668   1.358       .  A
C451        N452   1.359       .  A
C451        N456   1.358       .  A
C451        C509   1.438       .  S
N452        C453   1.359       .  A
C453        N454   1.357       .  A
C453        C493   1.461       .  S
N454        C455   1.357       .  A
C455        N456   1.357       .  A
C455        C494   1.459       .  S
C457        N458   1.359       .  A
C457        N462   1.358       .  A
C457        C508   1.438       .  S
N458        C459   1.359       .  A
C459        N460   1.356       .  A
C459        C483   1.461       .  S
N460        C461   1.356       .  A
C461        N462   1.357       .  A
C461        C482   1.459       .  S
N463        N464   1.321       .  A
N463        N688   1.316   1_545  A
N463       Mn638   2.205   1_554  S
N464        C471   1.351       .  A
N465        N686   1.316       .  A
N465        N466   1.322       .  A
N465       Mn481   2.207       .  S
N466        C691   1.352       .  A
N467        N684   1.316   1_545  A
N467        N468   1.321       .  A
N467       Mn492   2.202       .  S
N468        C472   1.351       .  A
N469        N682   1.316       .  A
N469        N470   1.322       .  A
N469       Mn627   2.208   1_554  S
N470        C690   1.352       .  A
C471        N689   1.351   1_545  A
C472        N685   1.351   1_545  A
N473        N474   1.321       .  A
N473       Mn503   2.202       .  S
N474        C482   1.351       .  A
N475        N476   1.320       .  A
N475       Mn627   2.201   1_554  S
N477        N478   1.321       .  A
N477       Mn649   2.203   1_554  S
N478        C483   1.351       .  A
N479        N480   1.320       .  A
N479       Mn481   2.200       .  S
Mn481       N542   2.208       .  S
Mn481       N548   2.201       .  S
N484        N485   1.322       .  A
N484       Mn492   2.207       .  S
N486        N487   1.321       .  A
N486       Mn650   2.205   1_554  S
N487        C494   1.351       .  A
N488        N489   1.321       .  A
N488       Mn638   2.204   1_554  S
N490        N491   1.322       .  A
N490       Mn504   2.206       .  S
N491        C493   1.352       .  A
Mn492       N536   2.205       .  S
Mn492       N561   2.204       .  S
N495        N496   1.320       .  A
N495        N720   1.316       .  A
N495       Mn649   2.200   1_554  S
N496        C725   1.351       .  A
N497        N498   1.320       .  A
N497        N718   1.316   1_545  A
N497       Mn504   2.201       .  S
N498        C507   1.351   1_545  A
N499        N716   1.316       .  A
N499        N500   1.320       .  A
N499       Mn503   2.202       .  S
N500        C726   1.351       .  A
N501        N714   1.316   1_545  A
N501        N502   1.320       .  A
N501       Mn650   2.200   1_554  S
N502        C506   1.350   1_545  A
Mn503       N550   2.203       .  S
Mn503       N568   2.200       .  S
Mn503      Cl724   2.550       .  S
Mn504       N559   2.205       .  S
Mn504       N574   2.200       .  S
Mn504      Cl505   2.549       .  S
Cl505      Mn722   2.549   1_545  S
C506        N715   1.351       .  A
C507        N719   1.352       .  A
C508        C509   1.207       .  T
C510        C511   1.208       .  T
C512        N513   1.359       .  A
C512        N517   1.358       .  A
C512        C583   1.439       .  S
N513        C733   1.359       .  A
C514        N732   1.359   1_545  A
C514        N515   1.356       .  A
C514        C544   1.461       .  S
N515        C516   1.356   1_545  A
C516        N736   1.357       .  A
C516        C545   1.459   1_565  S
N517        C735   1.358       .  A
C518        N519   1.359       .  A
C518        N523   1.358       .  A
C518        C584   1.439       .  S
N519        C739   1.359       .  A
C520        N738   1.359       .  A
C520        N521   1.357       .  A
C520        C580   1.461       .  S
N521        C522   1.357       .  A
C522        N742   1.357       .  A
C522        C579   1.459       .  S
N523        C741   1.358       .  A
C524        N525   1.359       .  A
C524        N529   1.358       .  A
C524        C582   1.438       .  S
N525        C526   1.359       .  A
C526        N527   1.357       .  A
C526        C566   1.461       .  S
N527        C528   1.357       .  A
C528        N529   1.357       .  A
C528        C567   1.459       .  S
C530        N531   1.359       .  A
C530        N535   1.358       .  A
C530        C581   1.438       .  S
N531        C532   1.359       .  A
C532        N533   1.356       .  A
C532        C556   1.461       .  S
N533        C534   1.356       .  A
C534        N535   1.357       .  A
C534        C555   1.459       .  S
N536        N537   1.321       .  A
N536        N761   1.316   1_545  A
N537        C544   1.351       .  A
N538        N759   1.316       .  A
N538        N539   1.322       .  A
N538       Mn554   2.207       .  S
N539        C764   1.352       .  A
N540        N757   1.316   1_545  A
N540        N541   1.321       .  A
N540       Mn565   2.202       .  S
N541        C545   1.351       .  A
N542        N755   1.316       .  A
N542        N543   1.322       .  A
N543        C763   1.352       .  A
C544        N762   1.351   1_545  A
C545        N758   1.351   1_545  A
N546        N547   1.321       .  A
N546       Mn576   2.202       .  S
N547        C555   1.351       .  A
N548        N549   1.320       .  A
N550        N551   1.321       .  A
N551        C556   1.351       .  A
N552        N553   1.320       .  A
N552       Mn554   2.200       .  S
Mn554       N615   2.208       .  S
Mn554       N621   2.201       .  S
N557        N558   1.322       .  A
N557       Mn565   2.207       .  S
N559        N560   1.321       .  A
N560        C567   1.351       .  A
N561        N562   1.321       .  A
N563        N564   1.322       .  A
N563       Mn577   2.206       .  S
N564        C566   1.352       .  A
Mn565       N609   2.205       .  S
Mn565       N634   2.204       .  S
N568        N569   1.320       .  A
N568        N793   1.316       .  A
N569        C798   1.351       .  A
N570        N571   1.320       .  A
N570        N791   1.316   1_545  A
N570       Mn577   2.201       .  S
N571        C580   1.351   1_545  A
N572        N789   1.316       .  A
N572        N573   1.320       .  A
N572       Mn576   2.202       .  S
N573        C799   1.351       .  A
N574        N787   1.316   1_545  A
N574        N575   1.320       .  A
N575        C579   1.350   1_545  A
Mn576       N623   2.203       .  S
Mn576       N641   2.200       .  S
Mn576      Cl797   2.550       .  S
Mn577       N632   2.205       .  S
Mn577       N647   2.200       .  S
Mn577      Cl578   2.549       .  S
Cl578      Mn795   2.549   1_545  S
C579        N788   1.351       .  A
C580        N792   1.352       .  A
C581        C582   1.207       .  T
C583        C584   1.208       .  T
C585        N586   1.359       .  A
C585        N590   1.358       .  A
C585        C656   1.439       .  S
N586        C806   1.359       .  A
C587        N805   1.359   1_545  A
C587        N588   1.356       .  A
C587        C617   1.461       .  S
N588        C589   1.356   1_545  A
C589        N809   1.357       .  A
C589        C618   1.459   1_565  S
N590        C808   1.358       .  A
C591        N592   1.359       .  A
C591        N596   1.358       .  A
C591        C657   1.439       .  S
N592        C812   1.359       .  A
C593        N811   1.359       .  A
C593        N594   1.357       .  A
C593        C653   1.461       .  S
N594        C595   1.357       .  A
C595        N815   1.357       .  A
C595        C652   1.459       .  S
N596        C814   1.358       .  A
C597        N598   1.359       .  A
C597        N602   1.358       .  A
C597        C655   1.438       .  S
N598        C599   1.359       .  A
C599        N600   1.357       .  A
C599        C639   1.461       .  S
N600        C601   1.357       .  A
C601        N602   1.357       .  A
C601        C640   1.459       .  S
C603        N604   1.359       .  A
C603        N608   1.358       .  A
C603        C654   1.438       .  S
N604        C605   1.359       .  A
C605        N606   1.356       .  A
C605        C629   1.461       .  S
N606        C607   1.356       .  A
C607        N608   1.357       .  A
C607        C628   1.459       .  S
N609        N610   1.321       .  A
N609        N834   1.316   1_545  A
N610        C617   1.351       .  A
N611        N832   1.316       .  A
N611        N612   1.322       .  A
N611       Mn627   2.207       .  S
N612        C837   1.352       .  A
N613        N830   1.316   1_545  A
N613        N614   1.321       .  A
N613       Mn638   2.202       .  S
N614        C618   1.351       .  A
N615        N828   1.316       .  A
N615        N616   1.322       .  A
N616        C836   1.352       .  A
C617        N835   1.351   1_545  A
C618        N831   1.351   1_545  A
N619        N620   1.321       .  A
N619       Mn649   2.202       .  S
N620        C628   1.351       .  A
N621        N622   1.320       .  A
N623        N624   1.321       .  A
N624        C629   1.351       .  A
N625        N626   1.320       .  A
N625       Mn627   2.200       .  S
N630        N631   1.322       .  A
N630       Mn638   2.207       .  S
N632        N633   1.321       .  A
N633        C640   1.351       .  A
N634        N635   1.321       .  A
N636        N637   1.322       .  A
N636       Mn650   2.206       .  S
N637        C639   1.352       .  A
N641        N642   1.320       .  A
N641        N866   1.316       .  A
N642        C871   1.351       .  A
N643        N644   1.320       .  A
N643        N864   1.316   1_545  A
N643       Mn650   2.201       .  S
N644        C653   1.351   1_545  A
N645        N862   1.316       .  A
N645        N646   1.320       .  A
N645       Mn649   2.202       .  S
N646        C872   1.351       .  A
N647        N860   1.316   1_545  A
N647        N648   1.320       .  A
N648        C652   1.350   1_545  A
Mn649      Cl870   2.550       .  S
Mn650      Cl651   2.549       .  S
Cl651      Mn868   2.549   1_545  S
C652        N861   1.351       .  A
C653        N865   1.352       .  A
C654        C655   1.207       .  T
C656        C657   1.208       .  T
C658        N659   1.359       .  A
C658        N663   1.358       .  A
C658        C729   1.438       .  S
C660        N661   1.357       .  A
C660        C690   1.462       .  S
N661        C662   1.357       .  A
C662        C691   1.461       .  S
C664        N665   1.359       .  A
C664        N669   1.358       .  A
C664        C730   1.438       .  S
C666        N667   1.357       .  A
C666        C726   1.462       .  S
N667        C668   1.357       .  A
C668        C725   1.460       .  S
C670        N671   1.359       .  A
C670        N675   1.358       .  A
C670        C728   1.438       .  S
N671        C672   1.359       .  A
C672        N673   1.356       .  A
C672        C712   1.461       .  S
N673        C674   1.356       .  A
C674        N675   1.357       .  A
C674        C713   1.459       .  S
C676        N677   1.359       .  A
C676        N681   1.358       .  A
C676        C727   1.438   1_455  S
N677        C678   1.359       .  A
C678        N679   1.357       .  A
C678        C702   1.461       .  S
N679        C680   1.357       .  A
C680        N681   1.357       .  A
C680        C701   1.459       .  S
N682        N683   1.320       .  A
N682       Mn857   2.202   1_554  S
N683        C690   1.351       .  A
N684        N685   1.320       .  A
N684       Mn700   2.202       .  S
N686        N687   1.320       .  A
N686       Mn711   2.199       .  S
N687        C691   1.350       .  A
N688        N689   1.321       .  A
N688       Mn846   2.203   1_554  S
N692        N693   1.320       .  A
N692       Mn722   2.198       .  S
N693        C701   1.350   1_655  A
N694        N695   1.321       .  A
N694       Mn846   2.203   1_554  S
N696        N697   1.320       .  A
N696       Mn868   2.201   1_554  S
N697        C702   1.351   1_655  A
N698        N699   1.320       .  A
N698       Mn700   2.202       .  S
Mn700       N761   2.203       .  S
Mn700       N767   2.203       .  S
N703        N704   1.322       .  A
N703       Mn711   2.209       .  S
N705        N706   1.320       .  A
N705       Mn869   2.202   1_554  S
N706        C713   1.351       .  A
N707        N708   1.322       .  A
N707       Mn857   2.206   1_554  S
N709        N710   1.321       .  A
N709       Mn723   2.203       .  S
N710        C712   1.351       .  A
Mn711       N755   2.202       .  S
Mn711       N780   2.206       .  S
N714        N715   1.321       .  A
N714       Mn868   2.204   1_554  S
N716        N717   1.322       .  A
N716       Mn723   2.207       .  S
N717        C726   1.352       .  A
N718        N719   1.322       .  A
N718       Mn722   2.206       .  S
N720        N721   1.321       .  A
N720       Mn869   2.206   1_554  S
N721        C725   1.352       .  A
Mn722       N769   2.201       .  S
Mn722       N787   2.204       .  S
Mn723       N778   2.202       .  S
Mn723       N793   2.206       .  S
Mn723      Cl724   2.548       .  S
C727        C728   1.207       .  T
C729        C730   1.207       .  T
C731        N732   1.359       .  A
C731        N736   1.358       .  A
C731        C802   1.438       .  S
C733        N734   1.357       .  A
C733        C763   1.462       .  S
N734        C735   1.357       .  A
C735        C764   1.461       .  S
C737        N738   1.359       .  A
C737        N742   1.358       .  A
C737        C803   1.438       .  S
C739        N740   1.357       .  A
C739        C799   1.462       .  S
N740        C741   1.357       .  A
C741        C798   1.460       .  S
C743        N744   1.359       .  A
C743        N748   1.358       .  A
C743        C801   1.438       .  S
N744        C745   1.359       .  A
C745        N746   1.356       .  A
C745        C785   1.461       .  S
N746        C747   1.356       .  A
C747        N748   1.357       .  A
C747        C786   1.459       .  S
C749        N750   1.359       .  A
C749        N754   1.358       .  A
C749        C800   1.438   1_455  S
N750        C751   1.359       .  A
C751        N752   1.357       .  A
C751        C775   1.461       .  S
N752        C753   1.357       .  A
C753        N754   1.357       .  A
C753        C774   1.459       .  S
N755        N756   1.320       .  A
N756        C763   1.351       .  A
N757        N758   1.320       .  A
N757       Mn773   2.202       .  S
N759        N760   1.320       .  A
N759       Mn784   2.199       .  S
N760        C764   1.350       .  A
N761        N762   1.321       .  A
N765        N766   1.320       .  A
N765       Mn795   2.198       .  S
N766        C774   1.350   1_655  A
N767        N768   1.321       .  A
N769        N770   1.320       .  A
N770        C775   1.351   1_655  A
N771        N772   1.320       .  A
N771       Mn773   2.202       .  S
Mn773       N834   2.203       .  S
Mn773       N840   2.203       .  S
N776        N777   1.322       .  A
N776       Mn784   2.209       .  S
N778        N779   1.320       .  A
N779        C786   1.351       .  A
N780        N781   1.322       .  A
N782        N783   1.321       .  A
N782       Mn796   2.203       .  S
N783        C785   1.351       .  A
Mn784       N828   2.202       .  S
Mn784       N853   2.206       .  S
N787        N788   1.321       .  A
N789        N790   1.322       .  A
N789       Mn796   2.207       .  S
N790        C799   1.352       .  A
N791        N792   1.322       .  A
N791       Mn795   2.206       .  S
N793        N794   1.321       .  A
N794        C798   1.352       .  A
Mn795       N842   2.201       .  S
Mn795       N860   2.204       .  S
Mn796       N851   2.202       .  S
Mn796       N866   2.206       .  S
Mn796      Cl797   2.548       .  S
C800        C801   1.207       .  T
C802        C803   1.207       .  T
C804        N805   1.359       .  A
C804        N809   1.358       .  A
C804        C875   1.438       .  S
C806        N807   1.357       .  A
C806        C836   1.462       .  S
N807        C808   1.357       .  A
C808        C837   1.461       .  S
C810        N811   1.359       .  A
C810        N815   1.358       .  A
C810        C876   1.438       .  S
C812        N813   1.357       .  A
C812        C872   1.462       .  S
N813        C814   1.357       .  A
C814        C871   1.460       .  S
C816        N817   1.359       .  A
C816        N821   1.358       .  A
C816        C874   1.438       .  S
N817        C818   1.359       .  A
C818        N819   1.356       .  A
C818        C858   1.461       .  S
N819        C820   1.356       .  A
C820        N821   1.357       .  A
C820        C859   1.459       .  S
C822        N823   1.359       .  A
C822        N827   1.358       .  A
C822        C873   1.438   1_455  S
N823        C824   1.359       .  A
C824        N825   1.357       .  A
C824        C848   1.461       .  S
N825        C826   1.357       .  A
C826        N827   1.357       .  A
C826        C847   1.459       .  S
N828        N829   1.320       .  A
N829        C836   1.351       .  A
N830        N831   1.320       .  A
N830       Mn846   2.202       .  S
N832        N833   1.320       .  A
N832       Mn857   2.199       .  S
N833        C837   1.350       .  A
N834        N835   1.321       .  A
N838        N839   1.320       .  A
N838       Mn868   2.198       .  S
N839        C847   1.350   1_655  A
N840        N841   1.321       .  A
N842        N843   1.320       .  A
N843        C848   1.351   1_655  A
N844        N845   1.320       .  A
N844       Mn846   2.202       .  S
N849        N850   1.322       .  A
N849       Mn857   2.209       .  S
N851        N852   1.320       .  A
N852        C859   1.351       .  A
N853        N854   1.322       .  A
N855        N856   1.321       .  A
N855       Mn869   2.203       .  S
N856        C858   1.351       .  A
N860        N861   1.321       .  A
N862        N863   1.322       .  A
N862       Mn869   2.207       .  S
N863        C872   1.352       .  A
N864        N865   1.322       .  A
N864       Mn868   2.206       .  S
N866        N867   1.321       .  A
N867        C871   1.352       .  A
Mn869      Cl870   2.548       .  S
C873        C874   1.207       .  T
C875        C876   1.207       .  T
