geometry optimzed in LAMMPS
_audit_creation_date              2020-11-30 
_audit_creation_method            'lammps2cif' 
_symmetry_space_group_name_H-M    'P1' 
_symmetry_Int_Tables_number       1 
_symmetry_cell_setting            triclinic 
loop_ 
_symmetry_equiv_pos_as_xyz 
  x,y,z 
_cell_length_a                    25.43084803 
_cell_length_b                    25.468067192701632 
_cell_length_c                    26.485376969895572 
_cell_angle_alpha                 89.64055780010436 
_cell_angle_beta                  89.63928386148667 
_cell_angle_gamma                 89.1037358844845 
loop_ 
_atom_site_label 
_atom_site_type_symbol 
_atom_site_fract_x 
_atom_site_fract_y 
_atom_site_fract_z 
_atom_site_charge 
C1          C  0.86630431  0.86744119  0.86043144    -0.02500
C2          C  0.97666011  0.97154421  0.48370268     0.42500
N3          N  0.96169648  0.92485753  0.42109552     0.01400
C4          C  0.76199657  0.93290868  0.25721383    -0.06500
H5          H  0.69690857  0.91074263  0.44960972     0.06900
C6          C  0.80977727  0.73403869  0.43972723    -0.06800
Co7        Co  0.86946802  0.96555678  0.36613215     0.74200
N8          N  0.77166616  0.92321955  0.41218843    -0.26000
Co9        Co  0.77914187  0.86668692  0.35369896     0.74100
C10         C  0.75946066  0.75124627  0.46031829     0.42600
N11         N  0.94027713  0.77168156  0.40969769     0.01000
N12         N  0.78156495  0.80603824  0.40487077     0.01100
N13         N  0.81874426  0.99893279  0.27037059    -0.46900
H14         H  0.90450089  0.02504484  0.47033771     0.06900
N15         N  0.80725796  0.95980483  0.41744351     0.01400
N16         N  0.78412933  0.80985250  0.29609144     0.01100
C17         C  0.76224867  0.75405953  0.23851291     0.42700
N18         N  0.97355861  0.81068516  0.41197994    -0.25500
C19         C  0.94176888  0.01318359  0.28274969    -0.06400
N20         N  0.99583181  0.93098024  0.45732608    -0.46600
N21         N  0.74678013  0.79834881  0.26305121    -0.46800
C22         C  0.99279317  0.99975448  0.25998393     0.42500
N23         N  0.81800474  0.96536008  0.30819588     0.01400
N24         N  0.97248998  0.82507422  0.30350650    -0.25500
N25         N  0.92274992  0.95960120  0.42239623    -0.26000
N26         N  0.93832311  0.78711065  0.29887874     0.01000
H27         H  0.03333896  0.85535329  0.25520920     0.06900
H28         H  0.83475748  0.70197088  0.25577872     0.06900
N29         N  0.78478860  0.92680179  0.30189112    -0.26000
N30         N  0.82032121  0.77062753  0.40513825    -0.25700
N31         N  0.97046957  0.93932024  0.31321058     0.01400
C32         C  0.74839698  0.98021139  0.47371304     0.42800
C33         C  0.01071667  0.79911316  0.44616916    -0.06900
N34         N  0.82260826  0.77451640  0.29649603    -0.25700
H35         H  0.83306443  0.69904394  0.44751155     0.06900
N36         N  0.79489298  0.99442369  0.45313554    -0.46900
H37         H  0.04443951  0.82322131  0.45306731     0.06900
C38         C  0.98194128  0.78753684  0.23017322     0.42600
C39         C  0.92840245  0.99073034  0.46161908    -0.06400
Co40       Co  0.97070920  0.87472068  0.36260883     0.73800
N41         N  0.95384470  0.73240605  0.44106326    -0.46600
C42         C  0.78536160  0.98019536  0.23647025     0.42900
N43         N  0.00840735  0.95367393  0.28143941    -0.46600
Co44       Co  0.88086526  0.77435504  0.35282285     0.73900
C45         C  0.81223556  0.73781841  0.26158879    -0.06900
C46         C  0.73268894  0.93289226  0.44600086    -0.06500
N47         N  0.93140216  0.97367567  0.31491047    -0.26000
N48         N  0.74397885  0.79577414  0.43755430    -0.46800
H49         H  0.73291110  0.90744861  0.24120236     0.06900
C50         C  0.00202291  0.82797479  0.26219034    -0.06900
Cl51       Cl  0.87487276  0.87007335  0.35919265    -0.49900
C52         C  0.99801235  0.74706006  0.46621496     0.42600
H53         H  0.91768772  0.04820666  0.27819261     0.06900
N54         N  0.94278031  0.76332268  0.25513982    -0.46600
C55         C  0.74834653  0.47775567  0.99044367     0.42500
N56         N  0.76958244  0.42047004  0.93361835     0.01400
C57         C  0.00661274  0.28002178  0.92763240    -0.06500
H58         H  0.03317167  0.46631446  0.90792809     0.06900
C59         C  0.92861380  0.46636667  0.73538248    -0.06800
Co60       Co  0.87158638  0.36726243  0.95832117     0.74200
N61         N  0.95945437  0.42731312  0.91670975    -0.26000
Co62       Co  0.96071401  0.37282587  0.86114138     0.74100
C63         C  0.97980692  0.48889074  0.74884130     0.42600
N64         N  0.80089084  0.42924694  0.78572681     0.01000
N65         N  0.95661635  0.43038008  0.80438800     0.01100
N66         N  0.94608630  0.27864496  0.99017366    -0.46900
H67         H  0.82521676  0.46191468  0.03374565     0.06900
N68         N  0.92443654  0.42549311  0.95365266     0.01400
N69         N  0.95525155  0.31677509  0.80803248     0.01100
C70         C  0.96574305  0.24434592  0.77134730     0.42700
N71         N  0.76544170  0.42555619  0.82215328    -0.25500
C72         C  0.82169057  0.26643977  0.98714866    -0.06400
N73         N  0.73187513  0.45443073  0.94744709    -0.46600
N74         N  0.98636527  0.27535510  0.80613872    -0.46800
C75         C  0.77811270  0.23661220  0.97047296     0.42500
N76         N  0.93315255  0.31315477  0.95451729     0.01400
N77         N  0.76571869  0.31120778  0.81387581    -0.25500
N78         N  0.80958952  0.42044322  0.96492698    -0.26000
N79         N  0.79938799  0.31449655  0.77597304     0.01000
H80         H  0.69637059  0.26415235  0.82555480     0.06900
H81         H  0.89290254  0.25761861  0.72154684     0.06900
N82         N  0.96785932  0.31516115  0.91760875    -0.26000
N83         N  0.91783389  0.43038946  0.77160224    -0.25700
N84         N  0.78104047  0.30584377  0.92588531     0.01400
C85         C  0.98083813  0.47798847  0.97802195     0.42800
C86         C  0.73369661  0.46757007  0.82061640    -0.06900
N87         N  0.91610965  0.31537282  0.77568141    -0.25700
H88         H  0.90568388  0.47267185  0.70159285     0.06900
N89         N  0.93614779  0.45528483  0.99193195    -0.46900
H90         H  0.70100558  0.47571206  0.84583636     0.06900
C91         C  0.74580210  0.25328032  0.75289836     0.42600
C92         C  0.79991146  0.45505824  0.00187992    -0.06400
Co93       Co  0.76851405  0.36544458  0.87399480     0.73800
N94         N  0.79551607  0.47255665  0.75905900    -0.46600
C95         C  0.99126743  0.25495894  0.97535395     0.42900
N96         N  0.75373566  0.26294068  0.93264674    -0.46600
Co97       Co  0.85838791  0.37263770  0.77553030     0.73900
C98         C  0.91952178  0.27051807  0.75046307    -0.06900
C99         C  0.99669374  0.46078442  0.92837451    -0.06500
N100        N  0.82031285  0.30848590  0.95781206    -0.26000
N101        N  0.99445985  0.46367806  0.79185440    -0.46800
H102        H  0.04231109  0.27465831  0.90574823     0.06900
C103        C  0.73040241  0.27379268  0.80283027    -0.06900
Cl104      Cl  0.86467713  0.36985745  0.86707709    -0.49900
C105        C  0.75443508  0.49878307  0.77941725     0.42600
H106        H  0.84866557  0.25888113  0.01781481     0.06900
N107        N  0.78820949  0.28166305  0.73860994    -0.46600
C108        C  0.49096440  0.96995943  0.97149117     0.42500
N109        N  0.42915508  0.95594288  0.92212000     0.01400
C110        C  0.25461376  0.76159379  0.92653682    -0.06500
H111        H  0.45349217  0.69249759  0.91369295     0.06900
C112        C  0.46164255  0.80580162  0.74837316    -0.06800
Co113      Co  0.36730153  0.86783791  0.95920650     0.74200
N114        N  0.41528086  0.76814502  0.92273864    -0.26000
Co115      Co  0.35834632  0.77524279  0.86536816     0.74100
C116        C  0.48427269  0.75705527  0.76768593     0.42600
N117        N  0.42444730  0.93145732  0.77540944     0.01000
N118        N  0.41608233  0.77521648  0.81062595     0.01100
N119        N  0.26662436  0.82118417  0.98817483    -0.46900
H120        H  0.47160061  0.89990469  0.02264446     0.06900
N121        N  0.41896429  0.80442241  0.95761912     0.01400
N122        N  0.30204714  0.77998823  0.80766390     0.01100
C123        C  0.24459316  0.75790570  0.75167628     0.42700
N124        N  0.42593466  0.96629706  0.81187941    -0.25500
C125        C  0.27974911  0.94280216  0.99918198    -0.06400
N126        N  0.46708882  0.98878506  0.93020480    -0.46600
N127        N  0.26790048  0.74307419  0.79552155    -0.46800
C128        C  0.25735659  0.99360622  0.98424460     0.42500
N129        N  0.30635603  0.81896770  0.95650679     0.01400
N130        N  0.31300759  0.96940237  0.81996629    -0.25500
N131        N  0.42726440  0.91804666  0.95605954    -0.26000
N132        N  0.30880548  0.93442394  0.78379968     0.01000
H133        H  0.26458337  0.03417035  0.84510406     0.06900
H134        H  0.26569699  0.82895934  0.70168377     0.06900
N135        N  0.30100339  0.78417678  0.92038987    -0.26000
N136        N  0.41927662  0.81386049  0.77719519    -0.25700
N137        N  0.31631666  0.96944928  0.92997179     0.01400
C138        C  0.47399455  0.74442715  0.98206865     0.42800
C139        C  0.46255069  0.00207536  0.80061118    -0.06900
N140        N  0.30466595  0.81763286  0.77337740    -0.25700
H141        H  0.47403500  0.83014856  0.71701023     0.06900
N142        N  0.45303281  0.79188737  0.99355565    -0.46900
H143        H  0.47055222  0.03665849  0.82259314     0.06900
C144        C  0.24001658  0.98227777  0.77965007     0.42600
C145        C  0.46597571  0.92287087  0.98854737    -0.06400
Co146      Co  0.37137790  0.96652315  0.87082937     0.73800
N147        N  0.45872938  0.94206107  0.73854049    -0.46600
C148        C  0.23225683  0.78660735  0.97144126     0.42900
N149        N  0.28274930  0.00821834  0.94138071    -0.46600
Co150      Co  0.36430794  0.87454935  0.77572884     0.73900
C151        C  0.26985413  0.80714920  0.73663240    -0.06900
C152        C  0.44894935  0.72861094  0.93459502    -0.06500
N153        N  0.31539334  0.93114457  0.96336833    -0.26000
N154        N  0.45364786  0.73945000  0.80536432    -0.46800
H155        H  0.23901868  0.73076996  0.90333609     0.06900
C156        C  0.27169311  0.00161504  0.81983943    -0.06900
Cl157      Cl  0.36544245  0.87091667  0.86751517    -0.49900
C158        C  0.48478965  0.98607864  0.75192516     0.42600
H159        H  0.27253892  0.91954279  0.03270348     0.06900
N160        N  0.26522432  0.94117841  0.75794137    -0.46600
C161        C  0.36945751  0.36990031  0.87019296    -0.02500
C162        C  0.36917476  0.87285221  0.37010214    -0.02500
C163        C  0.87398294  0.36927442  0.36327348    -0.02500
C164        C  0.99959519  0.00483214  0.73377626     0.42500
N165        N  0.02039300  0.05676436  0.67250478     0.01400
C166        C  0.25806924  0.05677050  0.54036315    -0.06500
H167        H  0.26023751  0.08941140  0.74219521     0.06900
C168        C  0.17724079  0.25902139  0.71533483    -0.06800
Co169      Co  0.12169008  0.02545516  0.62245652     0.74200
N170        N  0.20577593  0.06855042  0.68421330    -0.26000
Co171      Co  0.21093856  0.12570970  0.62989409     0.74100
C172        C  0.22830934  0.24455539  0.73816857     0.42600
N173        N  0.04946686  0.20810059  0.67691162     0.01000
N174        N  0.20486195  0.18490517  0.68485032     0.01100
N175        N  0.19901862  0.99173429  0.53779342    -0.46900
H176        H  0.07370095  0.95364880  0.72105499     0.06900
N177        N  0.17268175  0.02970935  0.67995622     0.01400
N178        N  0.20934313  0.18380681  0.57662824     0.01100
C179        C  0.23284972  0.23818616  0.52176016     0.42700
N180        N  0.01498330  0.17052572  0.67214375    -0.25500
C181        C  0.05908097  0.98730640  0.53386659    -0.06400
N182        N  0.98308218  0.04690434  0.70642173    -0.46600
N183        N  0.24786696  0.19378378  0.54498573    -0.46800
C184        C  0.00920997  0.00300363  0.51284286     0.42500
N185        N  0.18482874  0.02833065  0.57109302     0.01400
N186        N  0.02026382  0.17646060  0.56304742    -0.25500
N187        N  0.05950129  0.02232767  0.67438775    -0.26000
N188        N  0.05372305  0.21537542  0.56593322     0.01000
H189        H  0.95453340  0.16201769  0.51387701     0.06900
H190        H  0.15909499  0.29054433  0.53213079     0.06900
N191        N  0.21900448  0.06660563  0.57396714    -0.26000
N192        N  0.16634474  0.22013480  0.68281890    -0.25700
N193        N  0.02968020  0.06074085  0.56419301     0.01400
C194        C  0.20838876  0.01650053  0.75041274     0.42800
C195        C  0.98105561  0.17180510  0.71027401    -0.06900
N196        N  0.17080567  0.21922278  0.57500118    -0.25700
H197        H  0.15431516  0.29487424  0.71904089     0.06900
N198        N  0.17368619  0.99693990  0.71832576    -0.46900
H199        H  0.94836440  0.14580904  0.71626999     0.06900
C200        C  0.00456147  0.23570955  0.50182193     0.42600
C201        C  0.04965361  0.98765702  0.71162762    -0.06400
Co202      Co  0.02023289  0.11634271  0.61751666     0.73800
N203        N  0.04117935  0.23591922  0.71785472    -0.46600
C204        C  0.24487852  0.00673714  0.51600360     0.42900
N205        N  0.99265950  0.04841347  0.53253288    -0.46600
Co206      Co  0.10944452  0.21710674  0.62523686     0.73900
C207        C  0.18213539  0.25556420  0.54063298    -0.06900
C208        C  0.23018039  0.06379087  0.72817587    -0.06500
N209        N  0.06816623  0.02549397  0.56623704    -0.26000
N210        N  0.24244316  0.19813270  0.71685429    -0.46800
H211        H  0.29299088  0.08006286  0.53595076     0.06900
C212        C  0.98756720  0.18591125  0.52408196    -0.06900
Cl213      Cl  0.11572915  0.12135530  0.62337080    -0.49900
C214        C  0.99945702  0.21393044  0.74070622     0.42600
H215        H  0.08109567  0.95078352  0.53060425     0.06900
N216        N  0.04487611  0.25211802  0.53085208    -0.46600
C217        C  0.20288656  0.75748167  0.00689003     0.42500
N218        N  0.20300776  0.68937277  0.05354989     0.01400
C219        C  0.99559665  0.52374248  0.06020087    -0.06500
H220        H  0.93919569  0.71060285  0.06512820     0.06900
C221        C  0.06307279  0.73344723  0.22183497    -0.06800
Co222      Co  0.11549251  0.62210616  0.02353588     0.74200
N223        N  0.01590365  0.67305735  0.05842104    -0.26000
Co224      Co  0.02489049  0.62058700  0.11971682     0.74100
C225        C  0.01617593  0.75708690  0.19957427     0.42600
N226        N  0.18347733  0.68954887  0.20291994     0.01000
N227        N  0.02795643  0.68150837  0.16862051     0.01100
N228        N  0.05675368  0.52715152  0.99720552    -0.46900
H229        H  0.13466434  0.72953624  0.95917277     0.06900
N230        N  0.05162117  0.67381750  0.02233347     0.01400
N231        N  0.03083849  0.56760897  0.18069346     0.01100
C232        C  0.01060545  0.51143173  0.23946315     0.42700
N233        N  0.21833514  0.69022154  0.16595311    -0.25500
C234        C  0.19011904  0.53281129  0.98763284    -0.06400
N235        N  0.22766162  0.73377747  0.04604520    -0.46600
N236        N  0.99548272  0.53218404  0.19442088    -0.46800
C237        C  0.24255327  0.51314661  0.00062826     0.42500
N238        N  0.06510926  0.56202297  0.03217017     0.01400
N239        N  0.22097331  0.57613627  0.16433272    -0.25500
N240        N  0.16467330  0.68324130  0.02100327    -0.26000
N241        N  0.18559691  0.57441266  0.20110903     0.01000
H242        H  0.28531215  0.52470017  0.14290902     0.06900
H243        H  0.08237914  0.53512788  0.28662674     0.06900
N244        N  0.02958883  0.56148147  0.06868471    -0.26000
N245        N  0.06702129  0.68642817  0.20071883    -0.25700
N246        N  0.21916604  0.57482606  0.05230441     0.01400
C247        C  0.99095652  0.72644360  0.99479961     0.42800
C248        C  0.25520850  0.72584541  0.17721489    -0.06900
N249        N  0.06867662  0.57218979  0.21404457    -0.25700
H250        H  0.08957885  0.74920792  0.24947081     0.06900
N251        N  0.03825349  0.70463358  0.98381682    -0.46900
H252        H  0.29065806  0.73254781  0.15550841     0.06900
C253        C  0.23210274  0.50517715  0.21053175     0.42600
C254        C  0.16168456  0.72423264  0.99018734    -0.06400
Co255      Co  0.21718009  0.63307125  0.10878600     0.73800
N256        N  0.19487444  0.72292270  0.23966982    -0.46600
C257        C  0.01385794  0.50223223  0.01280791     0.42900
N258        N  0.25843395  0.54167683  0.04078152    -0.46600
Co259      Co  0.12616502  0.63063443  0.20631548     0.73900
C260        C  0.05926337  0.53855342  0.25259949    -0.06900
C261        C  0.97560220  0.70498526  0.04439866    -0.06500
N262        N  0.17924633  0.57057278  0.02133786    -0.26000
N263        N  0.99614827  0.72260263  0.16733458    -0.46800
H264        H  0.95944936  0.51728990  0.08092659     0.06900
C265        C  0.25293516  0.53437242  0.16800892    -0.06900
Cl266      Cl  0.12102567  0.62641112  0.11474425    -0.49900
C267        C  0.23954641  0.74810647  0.22638720     0.42600
H268        H  0.16551919  0.52274341  0.95608806     0.06900
N269        N  0.19130756  0.53258258  0.23014080    -0.46600
C270        C  0.73331115  0.00234766  0.99352616     0.42500
N271        N  0.67745537  0.02413804  0.05190467     0.01400
C272        C  0.53247442  0.25858998  0.05249524    -0.06500
H273        H  0.74360336  0.26421951  0.07476827     0.06900
C274        C  0.71780716  0.18550927  0.24461830    -0.06800
Co275      Co  0.61818710  0.12221611  0.02411120     0.74200
N276        N  0.68247909  0.20889707  0.06036612    -0.26000
Co277      Co  0.62704558  0.21503567  0.11713954     0.74100
C278        C  0.74076500  0.23607201  0.23078272     0.42600
N279        N  0.68557088  0.05919778  0.19895605     0.01000
N280        N  0.68453853  0.21278473  0.17405932     0.01100
N281        N  0.52580332  0.19504242  0.99410833    -0.46900
H282        H  0.71117931  0.07503839  0.94584525     0.06900
N283        N  0.67615381  0.17443177  0.02411751     0.01400
N284        N  0.57049199  0.21165712  0.17172031     0.01100
C285        C  0.49741263  0.22293955  0.20879168     0.42700
N286        N  0.68340257  0.02409840  0.16276466    -0.25500
C287        C  0.53028194  0.05617036  0.99174799    -0.06400
N288        N  0.71236993  0.98721007  0.03852307    -0.46600
N289        N  0.52895559  0.24286516  0.17321115    -0.46800
C290        C  0.51402928  0.00439230  0.00525181     0.42500
N291        N  0.56281350  0.18333272  0.02777459     0.01400
N292        N  0.56957507  0.01977003  0.17374655    -0.25500
N293        N  0.67378213  0.06199886  0.01802507    -0.26000
N294        N  0.57055617  0.05513715  0.20984880     0.01000
H295        H  0.52704186  0.94727950  0.16597490     0.06900
H296        H  0.51057817  0.15099383  0.26046058     0.06900
N297        N  0.56793010  0.22004177  0.06204724    -0.26000
N298        N  0.68341483  0.17473267  0.20795783    -0.25700
N299        N  0.56466918  0.02848775  0.06171613     0.01400
C300        C  0.74821574  0.20875552  0.00614305     0.42800
C301        C  0.72651227  0.99422440  0.16331089    -0.06900
N302        N  0.56870607  0.17294298  0.20509722    -0.25700
H303        H  0.72226721  0.16299634  0.27910012     0.06900
N304        N  0.71403129  0.17370098  0.99044914    -0.46900
H305        H  0.73530363  0.96175672  0.13836014     0.06900
C306        C  0.51305356  0.99870607  0.23627785     0.42600
C307        C  0.70725082  0.05174138  0.97989241    -0.06400
Co308      Co  0.62358208  0.02293792  0.11279688     0.73800
N309        N  0.72903641  0.05470242  0.22534335    -0.46600
C310        C  0.50364796  0.24147486  0.00799157     0.42900
N311        N  0.53581627  0.98873586  0.04865154    -0.46600
Co312      Co  0.62698141  0.11546836  0.20712183     0.73900
C313        C  0.52358603  0.17699702  0.23062663    -0.06900
C314        C  0.72766993  0.23311970  0.05212662    -0.06500
N315        N  0.56273184  0.06737835  0.02854602    -0.26000
N316        N  0.71731014  0.25084178  0.18680702    -0.46800
H317        H  0.52852510  0.29498326  0.07309052     0.06900
C318        C  0.53450008  0.98267307  0.18693394    -0.06900
Cl319      Cl  0.62380403  0.11889807  0.11547034    -0.49900
C320        C  0.75652610  0.01458102  0.20456483     0.42600
H321        H  0.52648016  0.07748229  0.95645220     0.06900
N322        N  0.53828277  0.04356441  0.24814057    -0.46600
C323        C  0.61847274  0.62310776  0.11588438     0.01500
C324        C  0.12127922  0.61796091  0.61682346    -0.02500
C325        C  0.25260235  0.48675626  0.47538894     0.42500
N326        N  0.30771356  0.46252176  0.41671730     0.01400
C327        C  0.30004980  0.23068490  0.27816281    -0.06500
H328        H  0.33358650  0.20737305  0.46991018     0.06900
C329        C  0.50906819  0.29387079  0.44607633    -0.06800
Co330      Co  0.27344951  0.36459092  0.36451963     0.74200
N331        N  0.31692664  0.27332848  0.42095444    -0.26000
Co332      Co  0.37216576  0.26940714  0.36470508     0.74100
C333        C  0.49273632  0.24512746  0.47150569     0.42600
N334        N  0.46405360  0.42383675  0.41153309     0.01000
N335        N  0.43408585  0.26997476  0.41684155     0.01100
N336        N  0.23573556  0.29283946  0.27908465    -0.46900
H337        H  0.20169814  0.41412922  0.46168320     0.06900
N338        N  0.27923843  0.30958559  0.42045898     0.01400
N339        N  0.42581321  0.27153714  0.30725133     0.01100
C340        C  0.46522389  0.25692939  0.23826093     0.42700
N341        N  0.42592665  0.45978156  0.41264359    -0.25500
C342        C  0.24109045  0.42598676  0.26882213    -0.06400
N343        N  0.29696132  0.50045806  0.44989667    -0.46600
N344        N  0.42834536  0.23823339  0.26954269    -0.46800
C345        C  0.26255748  0.47005505  0.24106784     0.42500
N346        N  0.27342794  0.30361980  0.31178311     0.01400
N347        N  0.42509243  0.46274429  0.30450906    -0.25500
N348        N  0.27244520  0.42517961  0.41783260    -0.26000
N349        N  0.46293204  0.42684879  0.30224422     0.01000
H350        H  0.41323631  0.53757597  0.26754157     0.06900
H351        H  0.51850168  0.32838836  0.24727897     0.06900
N352        N  0.31110974  0.26753124  0.31236567    -0.26000
N353        N  0.47045185  0.30620617  0.41314058    -0.25700
N354        N  0.30939673  0.45644972  0.30600483     0.01400
C355        C  0.26318690  0.26323377  0.48414794     0.42800
C356        C  0.43537037  0.49387011  0.44906383    -0.06900
N357        N  0.46017703  0.30957813  0.30329955    -0.25700
H358        H  0.54518148  0.31522043  0.45031554     0.06900
N359        N  0.24553240  0.30471387  0.45783376    -0.46900
H360        H  0.41210606  0.52857435  0.45786329     0.06900
C361        C  0.48569450  0.48634769  0.24774473     0.42600
C362        C  0.23657588  0.43658886  0.45382771    -0.06400
Co363      Co  0.36676909  0.46138102  0.36017331     0.73800
N364        N  0.50047045  0.43146491  0.44572692    -0.46600
C365        C  0.24995085  0.24747581  0.25592950     0.42900
N366        N  0.30410287  0.48773446  0.26659146    -0.46600
Co367      Co  0.46576199  0.36642487  0.35744320     0.73900
C368        C  0.48677448  0.30387645  0.26037086    -0.06900
C369        C  0.31006093  0.24177091  0.46048214    -0.06500
N370        N  0.27329014  0.41993335  0.30800033    -0.26000
N371        N  0.44592021  0.23282808  0.45075161    -0.46800
H372        H  0.32287716  0.19513715  0.27178433     0.06900
C373        C  0.43581215  0.50147897  0.27158925    -0.06900
Cl374      Cl  0.36965771  0.36551359  0.36197373    -0.49900
C375        C  0.48425885  0.47469825  0.47025948     0.42600
H376        H  0.20709894  0.40248187  0.26086976     0.06900
N377        N  0.50032549  0.43971243  0.26911030    -0.46600
C378        C  0.73603413  0.74092132  0.72255216     0.42500
N379        N  0.71501676  0.68346860  0.66685759     0.01400
C380        C  0.48029657  0.68168756  0.53133556    -0.06500
H381        H  0.46537890  0.65022152  0.72725469     0.06900
C382        C  0.55702533  0.47864350  0.70841827    -0.06800
Co383      Co  0.61509916  0.71201362  0.61390241     0.74200
N384        N  0.52670169  0.66887828  0.67392020    -0.26000
Co385      Co  0.52555386  0.61097558  0.61992694     0.74100
C386        C  0.50533962  0.49269677  0.72992069     0.42600
N387        N  0.68313976  0.53059327  0.67617524     0.01000
N388        N  0.52913777  0.55182367  0.67552687     0.01100
N389        N  0.53954385  0.74666229  0.52989471    -0.46900
H390        H  0.66048820  0.78954838  0.70671213     0.06900
N391        N  0.56026325  0.70777088  0.67085770     0.01400
N392        N  0.53130296  0.55267907  0.56661086     0.01100
C393        C  0.51347105  0.50022693  0.50831699     0.42700
N394        N  0.71740531  0.56873371  0.67326728    -0.25500
C395        C  0.67981701  0.74384430  0.51965318    -0.06400
N396        N  0.75242842  0.69648355  0.69904825    -0.46600
N397        N  0.49598548  0.54349388  0.53191892    -0.46800
C398        C  0.72859339  0.72478894  0.49719986     0.42500
N399        N  0.55389434  0.70850745  0.56160459     0.01400
N400        N  0.72143609  0.55946885  0.56333122    -0.25500
N401        N  0.67546029  0.71740412  0.66661802    -0.26000
N402        N  0.68799151  0.52051847  0.56500565     0.01000
H403        H  0.79080247  0.57380903  0.51883549     0.06900
H404        H  0.58665588  0.44817618  0.52286523     0.06900
N405        N  0.51952966  0.67028334  0.56393666    -0.26000
N406        N  0.56804767  0.51709258  0.67512984    -0.25700
N407        N  0.71064050  0.67534145  0.55844972     0.01400
C408        C  0.51659654  0.72300837  0.73768914     0.42800
C409        C  0.74449603  0.57042175  0.71592864    -0.06900
N410        N  0.57025384  0.51759386  0.56686376    -0.25700
H411        H  0.58089070  0.44364428  0.71391764     0.06900
N412        N  0.55468900  0.74182201  0.70773417    -0.46900
H413        H  0.77483836  0.59804326  0.72489603     0.06900
C414        C  0.74293094  0.49882240  0.50512386     0.42600
C415        C  0.68490943  0.75502271  0.70062424    -0.06400
Co416      Co  0.71737370  0.62142595  0.61522796     0.73800
N417        N  0.68500316  0.50574148  0.71984361    -0.46600
C418        C  0.49350893  0.73280756  0.50875209     0.42900
N419        N  0.74600949  0.68273010  0.52284394    -0.46600
Co420      Co  0.62797190  0.52007416  0.62069248     0.73900
C421        C  0.56238147  0.48244482  0.53075593    -0.06900
C422        C  0.49731281  0.67508523  0.71534818    -0.06500
N423        N  0.67187048  0.71052294  0.55777807    -0.26000
N424        N  0.49082867  0.53857690  0.70731166    -0.46800
H425        H  0.44475554  0.65935996  0.52727378     0.06900
C426        C  0.75735376  0.54948130  0.52699289    -0.06900
Cl427      Cl  0.62135317  0.61609383  0.61700304    -0.49900
C428        C  0.72224880  0.52952221  0.74697398     0.42600
H429        H  0.65616186  0.77833297  0.51086839     0.06900
N430        N  0.69968259  0.48325155  0.53138534    -0.46600
C431        C  0.62139662  0.11449512  0.61553414    -0.02500
C432        C  0.12033386  0.12468613  0.11459049    -0.02500
C433        C  0.15713575  0.15764843  0.14944330    -0.05400
C434        C  0.13348867  0.19562119  0.18159908    -0.32900
C435        C  0.16305403  0.22665498  0.21428955     0.36400
C436        C  0.21758982  0.21799688  0.21905060    -0.05800
C437        C  0.24130983  0.17852608  0.18974147    -0.32800
C438        C  0.21240134  0.14857196  0.15553331     0.36300
H439        H  0.09129576  0.20206004  0.18054466     0.16700
O440        O  0.13759381  0.26397248  0.24287411    -0.60300
H441        H  0.28294587  0.17002088  0.19363474     0.16700
O442        O  0.23816935  0.10720266  0.13278273    -0.60400
H443        H  0.26685447  0.12270234  0.11224059     0.43700
H444        H  0.13636330  0.29592572  0.22127313     0.43600
C445        C  0.58614988  0.14883965  0.57812927    -0.05400
C446        C  0.53036250  0.14623036  0.57681531    -0.32900
C447        C  0.49987480  0.17599300  0.54204323     0.36400
C448        C  0.52394474  0.21098239  0.50773312    -0.05800
C449        C  0.57910232  0.21261632  0.50748612    -0.32800
C450        C  0.60977374  0.18105695  0.54033142     0.36300
H451        H  0.50941597  0.11994575  0.60161793     0.16700
O452        O  0.44622330  0.17128515  0.54287456    -0.60300
H453        H  0.59905902  0.23775157  0.48065057     0.16700
O454        O  0.66349359  0.18354080  0.53631800    -0.60400
H455        H  0.67290540  0.16254768  0.50607097     0.43700
H456        H  0.43906177  0.13933392  0.52295448     0.43600
C457        C  0.22233421  0.51964941  0.51333947    -0.05400
C458        C  0.18456302  0.49597594  0.54456697    -0.32900
C459        C  0.15261960  0.52507808  0.57854150     0.36400
C460        C  0.15775680  0.58069621  0.58309913    -0.05800
C461        C  0.19530800  0.60406815  0.55023483    -0.32800
C462        C  0.22776413  0.57447897  0.51703727     0.36300
H463        H  0.17862931  0.45406196  0.54207695     0.16700
O464        O  0.11337233  0.49856870  0.60294707    -0.60300
H465        H  0.19957125  0.64631746  0.55030898     0.16700
O466        O  0.26269496  0.60025594  0.48641773    -0.60400
H467        H  0.29448039  0.60483886  0.50732739     0.43700
H468        H  0.13136006  0.47280444  0.62545736     0.43600
C469        C  0.51910656  0.51991402  0.21395323    -0.05400
C470        C  0.51429591  0.57495993  0.21550840    -0.32900
C471        C  0.54569004  0.60764308  0.18485748     0.36400
C472        C  0.58298848  0.58610380  0.15004044    -0.05800
C473        C  0.58389522  0.53033895  0.14623250    -0.32800
C474        C  0.55470385  0.49792965  0.17897035     0.36300
H475        H  0.48659865  0.59322733  0.24145026     0.16700
O476        O  0.53860393  0.66100251  0.18848691    -0.60300
H477        H  0.60638085  0.51035569  0.11740376     0.16700
O478        O  0.55956254  0.44444339  0.17458537    -0.60400
H479        H  0.59056080  0.43453992  0.19534251     0.43700
H480        H  0.55221876  0.67064050  0.22209666     0.43600
C481        C  0.77505294  0.26963464  0.26339211    -0.05400
C482        C  0.77234636  0.32477683  0.26069550    -0.32900
C483        C  0.80196508  0.35650600  0.29341689     0.36400
C484        C  0.83828417  0.33392082  0.32857523    -0.05800
C485        C  0.83849034  0.27832036  0.33214353    -0.32800
C486        C  0.80873837  0.24686765  0.29984744     0.36300
H487        H  0.74610378  0.34363317  0.23384491     0.16700
O488        O  0.79647625  0.41003694  0.28936665    -0.60300
H489        H  0.86109528  0.25783874  0.36058745     0.16700
O490        O  0.81336398  0.19334658  0.30449505    -0.60400
H491        H  0.84056289  0.18277947  0.27940039     0.43700
H492        H  0.76358755  0.41892101  0.30790717     0.43600
C493        C  0.91319058  0.40387932  0.33024113    -0.05400
C494        C  0.91341383  0.40358999  0.27656793    -0.32900
C495        C  0.94397346  0.43833628  0.24743201     0.36400
C496        C  0.97908917  0.47289334  0.27046567    -0.05800
C497        C  0.98365450  0.46999088  0.32335429    -0.32800
C498        C  0.95152875  0.43649298  0.35294496     0.36300
H499        H  0.89004138  0.37645324  0.25568306     0.16700
O500        O  0.93919752  0.43771644  0.19588293    -0.60300
H501        H  0.01137530  0.49486262  0.34230451     0.16700
O502        O  0.95821530  0.43572625  0.40435342    -0.60400
H503        H  0.94712138  0.47096073  0.41633933     0.43700
H504        H  0.96552649  0.41133840  0.18408619     0.43600
C505        C  0.90979953  0.33456389  0.39989428    -0.05400
C506        C  0.90632841  0.33845819  0.45340966    -0.32900
C507        C  0.93660260  0.30659289  0.48599824     0.36400
C508        C  0.97337948  0.27027659  0.46675262    -0.05800
C509        C  0.97985751  0.26744214  0.41409718    -0.32800
C510        C  0.94925758  0.29929062  0.38095421     0.36300
H511        H  0.88085777  0.36689592  0.47151275     0.16700
O512        O  0.92925178  0.31086226  0.53717198    -0.60300
H513        H  0.00882105  0.24037289  0.39844018     0.16700
O514        O  0.95842756  0.29598972  0.32989490    -0.60400
H515        H  0.94973734  0.25956525  0.32031430     0.43700
H516        H  0.95258746  0.33953797  0.54770514     0.43600
C517        C  0.83444345  0.40471709  0.39541865    -0.05400
C518        C  0.83707986  0.46019299  0.39636297    -0.32900
C519        C  0.80814874  0.49073597  0.43142447     0.36400
C520        C  0.77205287  0.46732638  0.46517181    -0.05800
C521        C  0.76451581  0.41295788  0.46066950    -0.32800
C522        C  0.79453414  0.38206275  0.42645274     0.36300
H523        H  0.86231641  0.48113969  0.37062643     0.16700
O524        O  0.81494746  0.54402339  0.43131980    -0.60300
H525        H  0.73634238  0.39369567  0.48508628     0.16700
O526        O  0.78709872  0.32884497  0.42644005    -0.60400
H527        H  0.75498528  0.32363545  0.40611669     0.43700
H528        H  0.84970575  0.54935250  0.44710529     0.43600
C529        C  0.33368882  0.84233640  0.33105096    -0.05400
C530        C  0.27779479  0.84275583  0.33289065    -0.32900
C531        C  0.24727985  0.81184871  0.30026121     0.36400
C532        C  0.27112264  0.78223498  0.26123291    -0.05800
C533        C  0.32611539  0.78452435  0.25646948    -0.32800
C534        C  0.35704684  0.81269930  0.29092472     0.36300
H535        H  0.25644712  0.86656707  0.35975594     0.16700
O536        O  0.19380216  0.81086064  0.30722981    -0.60300
H537        H  0.34588356  0.76258780  0.22684936     0.16700
O538        O  0.41064701  0.81088570  0.28480701    -0.60400
H539        H  0.42219716  0.77630848  0.29844297     0.43700
H540        H  0.17985035  0.84170171  0.28832928     0.43600
C541        C  0.47743493  0.96805291  0.27121948    -0.05400
C542        C  0.42245331  0.97209731  0.26705106    -0.32900
C543        C  0.38830301  0.94297119  0.29883283     0.36400
C544        C  0.40813226  0.90731501  0.33621294    -0.05800
C545        C  0.46398945  0.90233534  0.33822210    -0.32800
C546        C  0.49779506  0.93294648  0.30768348     0.36300
H547        H  0.40560293  0.99807330  0.23871956     0.16700
O548        O  0.33510268  0.94816600  0.29157453    -0.60300
H549        H  0.48294657  0.87370483  0.36233155     0.16700
O550        O  0.55117595  0.92671753  0.31272853    -0.60400
H551        H  0.56070382  0.94962921  0.34129239     0.43700
H552        H  0.32515993  0.98301016  0.30549874     0.43600
C553        C  0.33562516  0.90893588  0.40773799    -0.05400
C554        C  0.34376665  0.96382406  0.41214930    -0.32900
C555        C  0.31518209  0.99563879  0.44668385     0.36400
C556        C  0.27690962  0.97389090  0.47911379    -0.05800
C557        C  0.26972342  0.91934428  0.47662586    -0.32800
C558        C  0.29935949  0.88714959  0.44324350     0.36300
H559        H  0.37328944  0.98316367  0.38964371     0.16700
O560        O  0.32541893  0.04828262  0.44822215    -0.60300
H561        H  0.24167486  0.90094664  0.50180945     0.16700
O562        O  0.29182173  0.83396233  0.44535193    -0.60400
H563        H  0.30961675  0.82183113  0.47665432     0.43700
H564        H  0.30315186  0.06440439  0.42151954     0.43600
C565        C  0.40036716  0.83337600  0.40613363    -0.05400
C566        C  0.43484668  0.85453604  0.44236284    -0.32900
C567        C  0.46510677  0.82276861  0.47524040     0.36400
C568        C  0.46055472  0.76766785  0.47496748    -0.05800
C569        C  0.42311848  0.74615096  0.44278685    -0.32800
C570        C  0.39313766  0.77769139  0.40908168     0.36300
H571        H  0.43937104  0.89669706  0.44436442     0.16700
O572        O  0.49861073  0.84647999  0.50810899    -0.60300
H573        H  0.41680463  0.70418180  0.44361535     0.16700
O574        O  0.35380552  0.75360832  0.38315262    -0.60400
H575        H  0.37141495  0.72700377  0.36136824     0.43700
H576        H  0.47733055  0.85320200  0.53895674     0.43600
C577        C  0.26431244  0.27661823  0.77073454    -0.05400
C578        C  0.30761618  0.25223161  0.79461132    -0.32900
C579        C  0.34284137  0.28053507  0.82491224     0.36400
C580        C  0.33420371  0.33504868  0.83483010    -0.05800
C581        C  0.29348833  0.35975216  0.80663152    -0.32800
C582        C  0.25843771  0.33148299  0.77638563     0.36300
H583        H  0.31496654  0.21062699  0.78917301     0.16700
O584        O  0.38649210  0.25427081  0.84262213    -0.60300
H585        H  0.28745808  0.40174676  0.80936304     0.16700
O586        O  0.21987196  0.35872204  0.75097941    -0.60400
H587        H  0.19221144  0.36631956  0.77661247     0.43700
H588        H  0.41043652  0.25057873  0.81313639     0.43600
C589        C  0.33601781  0.40550055  0.90724392    -0.05400
C590        C  0.28134658  0.39877854  0.91473828    -0.32900
C591        C  0.25119124  0.43270461  0.94538038     0.36400
C592        C  0.27495579  0.47395740  0.97160996    -0.05800
C593        C  0.32977887  0.47819153  0.96855617    -0.32800
C594        C  0.36017250  0.44466484  0.93724542     0.36300
H595        H  0.26104161  0.36660799  0.89759313     0.16700
O596        O  0.19820293  0.42444578  0.94986597    -0.60300
H597        H  0.34921337  0.50878189  0.98929802     0.16700
O598        O  0.41362211  0.45125446  0.93543903    -0.60400
H599        H  0.41911638  0.48643970  0.92021288     0.43700
H600        H  0.19436016  0.40073305  0.97945712     0.43600
C601        C  0.46975785  0.27472743  0.97456700    -0.05400
C602        C  0.41540835  0.26684363  0.97207812    -0.32900
C603        C  0.38311676  0.29782763  0.94001319     0.36400
C604        C  0.40520192  0.33620508  0.90704997    -0.05800
C605        C  0.45974027  0.34562328  0.91286862    -0.32800
C606        C  0.49145194  0.31539152  0.94559628     0.36300
H607        H  0.39766871  0.23691881  0.99560761     0.16700
O608        O  0.32973448  0.29058576  0.94137180    -0.60300
H609        H  0.47854059  0.37763442  0.89332807     0.16700
O610        O  0.54384737  0.32660221  0.94955290    -0.60400
H611        H  0.56187123  0.30348930  0.92473982     0.43700
H612        H  0.32412102  0.25442324  0.92912851     0.43600
C613        C  0.40272947  0.40360733  0.83177332    -0.05400
C614        C  0.44323974  0.37848078  0.80361398    -0.32900
C615        C  0.47747237  0.40642193  0.77168634     0.36400
C616        C  0.47020539  0.46094670  0.76386894    -0.05800
C617        C  0.42675228  0.48536703  0.78738905    -0.32800
C618        C  0.39268153  0.45754383  0.81972448     0.36300
H619        H  0.45008468  0.33669722  0.80814482     0.16700
O620        O  0.51683704  0.37924070  0.74720013    -0.60300
H621        H  0.41859438  0.52664718  0.78038490     0.16700
O622        O  0.34905248  0.48374929  0.83780488    -0.60400
H623        H  0.32505163  0.48769847  0.80859585     0.43700
H624        H  0.54463265  0.37352996  0.77282394     0.43600
C625        C  0.15468914  0.65433852  0.65290599    -0.05400
C626        C  0.21026924  0.64975582  0.65770069    -0.32900
C627        C  0.23931847  0.68319309  0.68912165     0.36400
C628        C  0.21391209  0.72189400  0.71850587    -0.05800
C629        C  0.15886558  0.72548681  0.71633276    -0.32800
C630        C  0.12950470  0.69248756  0.68454730     0.36300
H631        H  0.23226492  0.61957938  0.63802900     0.16700
O632        O  0.29307476  0.67810509  0.69023932    -0.60300
H633        H  0.13826250  0.75424039  0.73940807     0.16700
O634        O  0.07569191  0.69755360  0.68500217    -0.60400
H635        H  0.06772627  0.73267640  0.67021769     0.43700
H636        H  0.30047022  0.65107295  0.71646891     0.43600
C637        C  0.15253715  0.08955814  0.07676280    -0.05400
C638        C  0.14855085  0.03427908  0.07614382    -0.32900
C639        C  0.18187367  0.00291919  0.04614369     0.36400
C640        C  0.21844377  0.02612223  0.01303466    -0.05800
C641        C  0.21830852  0.08096494  0.00849967    -0.32800
C642        C  0.18598974  0.11253868  0.03956857     0.36300
H643        H  0.11967468  0.01425897  0.09886553     0.16700
O644        O  0.17677438  0.94939762  0.04814787    -0.60300
H645        H  0.24476522  0.09972671  0.98199241     0.16700
O646        O  0.18798897  0.16605886  0.03375010    -0.60400
H647        H  0.22216612  0.17660548  0.04792270     0.43700
H648        H  0.19062469  0.93854649  0.08164444     0.43600
C649        C  0.50867019  0.71356496  0.01724622    -0.05400
C650        C  0.53731490  0.73991203  0.05421516    -0.32900
C651        C  0.57058737  0.71274453  0.08827374     0.36400
C652        C  0.57789359  0.65721788  0.08455775    -0.05800
C653        C  0.54366988  0.63096674  0.05138231    -0.32800
C654        C  0.51061370  0.65830523  0.01755311     0.36300
H655        H  0.53335254  0.78219586  0.05739746     0.16700
O656        O  0.59081840  0.74029909  0.12793412    -0.60300
H657        H  0.54480285  0.58847146  0.04975236     0.16700
O658        O  0.48005173  0.63016936  0.98536873    -0.60400
H659        H  0.44521810  0.62812528  0.00224900     0.43700
H660        H  0.60911293  0.77089426  0.11314126     0.43600
C661        C  0.52092960  0.01739063  0.71849967    -0.05400
C662        C  0.52215571  0.07243515  0.72229001    -0.32900
C663        C  0.55369449  0.10323806  0.68988244     0.36400
C664        C  0.58654430  0.07969673  0.65236034    -0.05800
C665        C  0.58792164  0.02372981  0.65204087    -0.32800
C666        C  0.55495807  0.99326474  0.68327312     0.36300
H667        H  0.49746477  0.09224096  0.74989606     0.16700
O668        O  0.55288002  0.15671270  0.69599306    -0.60300
H669        H  0.61487983  0.00220883  0.62804557     0.16700
O670        O  0.55724360  0.93956825  0.67952137    -0.60400
H671        H  0.58195576  0.92773882  0.70626374     0.43700
H672        H  0.51778416  0.16889607  0.68438177     0.43600
C673        C  0.71482498  0.21822516  0.71838367    -0.05400
C674        C  0.71502543  0.16324944  0.72445187    -0.32900
C675        C  0.68711359  0.13006850  0.69120268     0.36400
C676        C  0.65593434  0.15113379  0.65095818    -0.05800
C677        C  0.65441360  0.20702153  0.64750366    -0.32800
C678        C  0.68432195  0.23956607  0.67902964     0.36300
H679        H  0.73757790  0.14562732  0.75488776     0.16700
O680        O  0.68900359  0.07686027  0.69970252    -0.60300
H681        H  0.62928805  0.22725474  0.62100067     0.16700
O682        O  0.68309276  0.29284907  0.67104520    -0.60400
H683        H  0.64921422  0.30531094  0.68575766     0.43700
H684        H  0.72569888  0.06561657  0.69194370     0.43600
C685        C  0.02445670  0.22265042  0.00961663    -0.05400
C686        C  0.01771100  0.16835800  0.01269258    -0.32900
C687        C  0.04800284  0.13720808  0.04595250     0.36400
C688        C  0.08505765  0.16025822  0.07906677    -0.05800
C689        C  0.09177039  0.21533403  0.07435358    -0.32800
C690        C  0.06150518  0.24608143  0.04092790     0.36300
H691        H  0.98900033  0.14981108  0.98887788     0.16700
O692        O  0.04021301  0.08401126  0.04664216    -0.60300
H693        H  0.12183992  0.23540735  0.09487268     0.16700
O694        O  0.06910892  0.29925222  0.03861234    -0.60400
H695        H  0.04323830  0.31459516  0.06273420     0.43700
H696        H  0.05696221  0.07062996  0.01523597     0.43600
C697        C  0.71750312  0.51622437  0.02158108    -0.05400
C698        C  0.68662028  0.55499563  0.99803926    -0.32900
C699        C  0.65816348  0.59272542  0.02623732     0.36400
C700        C  0.65598418  0.58958046  0.08025058    -0.05800
C701        C  0.69168028  0.55355204  0.10304084    -0.32800
C702        C  0.72057054  0.51645974  0.07471946     0.36300
H703        H  0.68613841  0.55748898  0.95717814     0.16700
O704        O  0.63538871  0.63357189  0.99995896    -0.60300
H705        H  0.69424165  0.55156987  0.14383094     0.16700
O706        O  0.74996784  0.47916935  0.09983964    -0.60400
H707        H  0.72545986  0.44999362  0.10675752     0.43700
H708        H  0.66482677  0.65588535  0.98848100     0.43600
C709        C  0.01482100  0.52458069  0.71787722    -0.05400
C710        C  0.06988197  0.52287891  0.72368466    -0.32900
C711        C  0.10367458  0.55345265  0.69295321     0.36400
C712        C  0.08341764  0.58666651  0.65389376    -0.05800
C713        C  0.02776396  0.59205154  0.65251248    -0.32800
C714        C  0.99418400  0.56070592  0.68237656     0.36300
H715        H  0.08723092  0.49660955  0.75149021     0.16700
O716        O  0.15694465  0.54825295  0.69965770    -0.60300
H717        H  0.00897483  0.62096145  0.62848560     0.16700
O718        O  0.94082929  0.56752681  0.67782915    -0.60400
H719        H  0.93168786  0.55057613  0.64551759     0.43700
H720        H  0.16464587  0.56872209  0.73041538     0.43600
C721        C  0.65693308  0.65721135  0.14860832    -0.05400
C722        C  0.66183243  0.65061612  0.20166242    -0.32900
C723        C  0.69570700  0.68159391  0.23067684     0.36400
C724        C  0.72661660  0.72050481  0.20779041    -0.05800
C725        C  0.72483721  0.72555575  0.15505511    -0.32800
C726        C  0.69157727  0.69401099  0.12559838     0.36300
H727        H  0.64029542  0.62065210  0.22156358     0.16700
O728        O  0.69819968  0.67341573  0.28183285    -0.60300
H729        H  0.74976273  0.75389395  0.13635529     0.16700
O730        O  0.69354925  0.69906097  0.07400053    -0.60400
H731        H  0.68240252  0.73572167  0.06621944     0.43700
H732        H  0.72706041  0.64725315  0.28664580     0.43600
C733        C  0.02436413  0.03146917  0.22327561    -0.05400
C734        C  0.07918180  0.02510098  0.22088279    -0.32900
C735        C  0.10996948  0.05487909  0.18712636     0.36400
C736        C  0.08624661  0.09165039  0.15296669    -0.05800
C737        C  0.03117933  0.09942675  0.15801120    -0.32800
C738        C  0.00063673  0.06925336  0.19129279     0.36300
H739        H  0.09866366  0.99732642  0.24595531     0.16700
O740        O  0.16362522  0.04836917  0.18852229    -0.60300
H741        H  0.01060774  0.12940244  0.13660126     0.16700
O742        O  0.94720511  0.07718929  0.19172850    -0.60400
H743        H  0.93339090  0.05171637  0.16714793     0.43700
H744        H  0.17096417  0.01140667  0.17896595     0.43600
C745        C  0.02983129  0.71439387  0.50375126    -0.05400
C746        C  0.02361210  0.65972004  0.50768411    -0.32900
C747        C  0.05347632  0.62862741  0.54216124     0.36400
C748        C  0.08926848  0.65188937  0.57651199    -0.05800
C749        C  0.09759162  0.70627783  0.56956732    -0.32800
C750        C  0.06847799  0.73698910  0.53486199     0.36300
H751        H  0.99603884  0.64052747  0.48315404     0.16700
O752        O  0.04795498  0.57507484  0.54151833    -0.60300
H753        H  0.12755899  0.72615403  0.59050859     0.16700
O754        O  0.07898166  0.78950716  0.53189733    -0.60400
H755        H  0.05585513  0.80627723  0.55762465     0.43700
H756        H  0.01044683  0.56842196  0.54945416     0.43600
C757        C  0.71720195  0.01294685  0.51093723    -0.05400
C758        C  0.66212186  0.01380563  0.50961120    -0.32900
C759        C  0.63184856  0.04584793  0.54241694     0.36400
C760        C  0.65597796  0.07808160  0.57949672    -0.05800
C761        C  0.71172972  0.07744528  0.57970776    -0.32800
C762        C  0.74178588  0.04542323  0.54652450     0.36300
H763        H  0.64203203  0.99034867  0.48197565     0.16700
O764        O  0.57816963  0.04627437  0.53705836    -0.60300
H765        H  0.73303291  0.10241291  0.60490513     0.16700
O766        O  0.79558944  0.04645537  0.54925631    -0.60400
H767        H  0.80518522  0.01937191  0.57478576     0.43700
H768        H  0.56656206  0.01050073  0.54649473     0.43600
C769        C  0.83288371  0.90464033  0.89611421    -0.05400
C770        C  0.83748582  0.90309150  0.94959582    -0.32900
C771        C  0.80531606  0.93391571  0.98132263     0.36400
C772        C  0.76902065  0.97003285  0.96076079    -0.05800
C773        C  0.76753329  0.97594801  0.90799893    -0.32800
C774        C  0.79865402  0.94410734  0.87595611     0.36300
H775        H  0.86651018  0.87856088  0.96811675     0.16700
O776        O  0.81051243  0.92890042  0.03265300    -0.60300
H777        H  0.74109984  0.00464251  0.89104514     0.16700
O778        O  0.79560473  0.95216143  0.82471111    -0.60400
H779        H  0.75902551  0.94418870  0.81524102     0.43700
H780        H  0.83781107  0.95443147  0.04201221     0.43600
C781        C  0.90091046  0.90532687  0.82714010    -0.05400
C782        C  0.89478304  0.90925053  0.77394820    -0.32900
C783        C  0.92693682  0.94098389  0.74390265     0.36400
C784        C  0.96477589  0.97257431  0.76604281    -0.05800
C785        C  0.96898995  0.97290883  0.81877890    -0.32800
C786        C  0.93714176  0.94046583  0.84929213     0.36300
H787        H  0.86455403  0.88839983  0.75439849     0.16700
O788        O  0.92074120  0.94110754  0.69247703    -0.60300
H789        H  0.99701414  0.99847864  0.83647173     0.16700
O790        O  0.94086031  0.94408748  0.90086959    -0.60400
H791        H  0.97738548  0.93325654  0.90939344     0.43700
H792        H  0.94139539  0.91027719  0.68035448     0.43600
C793        C  0.76794384  0.77135623  0.75915785    -0.05400
C794        C  0.82296460  0.76641661  0.75872542    -0.32900
C795        C  0.85426132  0.79618710  0.79122750     0.36400
C796        C  0.83097503  0.83231757  0.82601898    -0.05800
C797        C  0.77532835  0.83355499  0.82859196    -0.32800
C798        C  0.74431610  0.80502375  0.79495957     0.36300
H799        H  0.84216891  0.74010599  0.73215835     0.16700
O800        O  0.90797472  0.79014885  0.78839497    -0.60300
H801        H  0.75470826  0.85623845  0.85692997     0.16700
O802        O  0.69062113  0.80859321  0.79919329    -0.60400
H803        H  0.68085390  0.84327889  0.78415441     0.43700
H804        H  0.91830132  0.80263561  0.75417898     0.43600
C805        C  0.90014570  0.82722659  0.89248200    -0.05400
C806        C  0.95577711  0.82499129  0.89034752    -0.32900
C807        C  0.98532026  0.79286313  0.92335842     0.36400
C808        C  0.96009646  0.76021471  0.95891846    -0.05800
C809        C  0.90508207  0.75840649  0.95837151    -0.32800
C810        C  0.87533831  0.79021035  0.92509502     0.36300
H811        H  0.97739993  0.84801470  0.86317568     0.16700
O812        O  0.03917148  0.79422778  0.92072248    -0.60300
H813        H  0.88479628  0.73178486  0.98359857     0.16700
O814        O  0.82160988  0.78540989  0.92516544    -0.60400
H815        H  0.80937660  0.79681225  0.95895424     0.43700
H816        H  0.04932188  0.82282472  0.94377638     0.43600
loop_ 
_geom_bond_atom_site_label_1 
_geom_bond_atom_site_label_2 
_geom_bond_distance 
_geom_bond_site_symmetry_2 
_ccdc_geom_bond_type 
C1          C769   1.578       .  S
C1          C781   1.578       .  S
C1          C796   1.576       .  S
C1          C805   1.575       .  S
C2           N20   1.335       .  A
C2           C39   1.440       .  S
C2          C184   1.400   1_665  S
N3           N20   1.310       .  A
N3           N25   1.318       .  A
N3          Co40   2.023       .  S
C4           N29   1.328       .  A
C4           C42   1.454       .  S
C4           H49   1.082       .  S
H5           C46   1.081       .  S
C6           N30   1.332       .  A
C6           C10   1.450       .  S
C6           H35   1.082       .  S
Co7          N25   2.024       .  S
Co7          N15   2.085       .  S
Co7          N47   2.084       .  S
Co7          N23   2.023       .  S
Co7         Cl51   2.442       .  S
N8           C46   1.352       .  A
N8           N15   1.318       .  A
N8           Co9   2.127       .  S
Co9          N12   2.049       .  S
Co9          N29   2.056       .  S
Co9          N16   2.112       .  S
Co9         Cl51   2.443       .  S
C10          N48   1.336       .  A
C10         C398   1.422       .  S
N11          N18   1.317       .  A
N11          N41   1.339       .  A
N11         Co44   2.140       .  S
N12          N30   1.326       .  A
N12          N48   1.314       .  A
N13          C42   1.335       .  A
N13          N23   1.313       .  A
H14          C39   1.082   1_545  S
N15          N36   1.330       .  A
N16          N34   1.319       .  A
N16          N21   1.333       .  A
C17          N21   1.357       .  A
C17          C45   1.467       .  S
C17         C724   1.502       .  S
N18          C33   1.341   1_655  A
N18         Co40   2.085       .  S
C19          N47   1.342   1_545  A
C19          C22   1.464   1_545  S
C19          H53   1.081       .  S
C22          N43   1.356   1_655  A
C22         C733   1.498   1_665  S
N23          N29   1.317       .  A
N24          C50   1.326   1_655  A
N24          N26   1.317       .  A
N24         Co40   2.018       .  S
N25          C39   1.321       .  A
N26          N54   1.314       .  A
N26         Co44   2.065       .  S
H27          C50   1.081       .  S
H28          C45   1.081       .  S
N30         Co44   2.068       .  S
N31          N43   1.330   1_655  A
N31          N47   1.314       .  A
N31         Co40   2.096       .  S
C32          N36   1.352       .  A
C32          C46   1.477       .  S
C32         C757   1.509   1_565  S
C33          C52   1.465   1_455  S
C33          H37   1.080       .  S
N34          C45   1.349       .  A
N34         Co44   2.109       .  S
C38          N54   1.347       .  A
C38          C50   1.440   1_655  S
C38         C225   1.412   1_655  S
Co40        Cl51   2.444       .  S
N41          C52   1.368       .  A
C42         C320   1.413   1_565  S
Co44        Cl51   2.447       .  S
C52         C745   1.521   1_655  S
C55          N73   1.359       .  A
C55          C92   1.458   1_556  S
C55         C697   1.494   1_556  S
N56          N73   1.332       .  A
N56          N78   1.317       .  A
N56         Co93   2.118       .  S
C57          N82   1.347   1_455  A
C57          C95   1.466   1_455  S
C57         H102   1.081       .  S
H58          C99   1.082   1_455  S
C59          N83   1.352       .  A
C59          C63   1.477       .  S
C59          H88   1.081       .  S
Co60         N78   2.070       .  S
Co60         N68   2.020       .  S
Co60        N100   2.001       .  S
Co60         N76   2.072       .  S
Co60       Cl104   2.425       .  S
N61          C99   1.323       .  A
N61          N68   1.320       .  A
N61         Co62   2.029       .  S
Co62         N65   2.095       .  S
Co62         N82   2.096       .  S
Co62         N69   2.017       .  S
Co62       Cl104   2.449       .  S
C63         N101   1.356       .  A
C63         C709   1.516   1_655  S
N64          N71   1.320       .  A
N64          N94   1.312       .  A
N64         Co97   2.055       .  S
N65          N83   1.318       .  A
N65         N101   1.332       .  A
N66          C95   1.347       .  A
N66          N76   1.325       .  A
H67          C92   1.081       .  S
N68          N89   1.309       .  A
N69          N87   1.319       .  A
N69          N74   1.310       .  A
C70          N74   1.333       .  A
C70          C98   1.453       .  S
C70         C214   1.404       .  S
N71          C86   1.331       .  A
N71         Co93   2.051       .  S
C72         N100   1.319       .  A
C72          C75   1.427       .  S
C72         H106   1.081   1_556  S
C75          N96   1.351       .  A
C75         C300   1.405   1_556  S
N76          N82   1.314       .  A
N77         C103   1.354       .  A
N77          N79   1.318       .  A
N77         Co93   2.117       .  S
N78          C92   1.340   1_556  A
N79         N107   1.334       .  A
N79         Co97   2.124       .  S
H80         C103   1.082       .  S
H81          C98   1.081       .  S
N83         Co97   2.127       .  S
N84          N96   1.314       .  A
N84         N100   1.315       .  A
N84         Co93   2.064       .  S
C85          N89   1.332       .  A
C85          C99   1.442       .  S
C85         C257   1.403   1_656  S
C86         C105   1.448       .  S
C86          H90   1.082       .  S
N87          C98   1.328       .  A
N87         Co97   2.053       .  S
C91         N107   1.358       .  A
C91         C103   1.473       .  S
C91         C673   1.515       .  S
Co93       Cl104   2.455       .  S
N94         C105   1.343       .  A
C95         C685   1.480   1_656  S
Co97       Cl104   2.431       .  S
C105        C428   1.415       .  S
C108        N126   1.337       .  A
C108        C145   1.435       .  S
C108        C290   1.395   1_566  S
N109        N126   1.306       .  A
N109        N131   1.316       .  A
N109       Co146   2.021       .  S
C110        N135   1.329       .  A
C110        C148   1.461       .  S
C110        H155   1.082       .  S
H111        C152   1.081       .  S
C112        N136   1.331       .  A
C112        C116   1.452       .  S
C112        H141   1.082       .  S
Co113       N131   2.006       .  S
Co113       N121   2.066       .  S
Co113       N153   2.071       .  S
Co113       N129   2.005       .  S
Co113      Cl157   2.430       .  S
N114        C152   1.348       .  A
N114        N121   1.315       .  A
N114       Co115   2.110       .  S
Co115       N118   2.057       .  S
Co115       N135   2.066       .  S
Co115       N122   2.102       .  S
Co115      Cl157   2.447       .  S
C116        N154   1.341       .  A
C116        C408   1.427       .  S
N117        N124   1.317       .  A
N117        N147   1.334       .  A
N117       Co150   2.123       .  S
N118        N136   1.323       .  A
N118        N154   1.317       .  A
N119        C148   1.330       .  A
N119        N129   1.310       .  A
H120        C145   1.082   1_554  S
N121        N142   1.325       .  A
N122        N140   1.319       .  A
N122        N127   1.332       .  A
C123        N127   1.356       .  A
C123        C151   1.470       .  S
C123        C628   1.504       .  S
N124        C139   1.344   1_565  A
N124       Co146   2.082       .  S
C125        N153   1.339       .  A
C125        C128   1.459       .  S
C125        H159   1.081   1_556  S
C128        N149   1.355   1_565  A
C128        C640   1.490   1_566  S
N129        N135   1.317       .  A
N130        C156   1.323   1_565  A
N130        N132   1.318       .  A
N130       Co146   2.011       .  S
N131        C145   1.319       .  A
N132        N160   1.315       .  A
N132       Co150   2.073       .  S
H133        C156   1.081       .  S
H134        C151   1.081       .  S
N136       Co150   2.068       .  S
N137        N149   1.330   1_565  A
N137        N153   1.313       .  A
N137       Co146   2.095       .  S
C138        N142   1.349       .  A
C138        C152   1.474       .  S
C138        C649   1.498   1_556  S
C139        C158   1.462   1_545  S
C139        H143   1.082       .  S
N140        C151   1.350       .  A
N140       Co150   2.116       .  S
C144        N160   1.349       .  A
C144        C156   1.433   1_565  S
C144        C194   1.408   1_565  S
Co146      Cl157   2.444       .  S
N147        C158   1.361       .  A
C148        C217   1.410   1_556  S
Co150      Cl157   2.433       .  S
C158        C661   1.506   1_565  S
C161        C580   1.586       .  S
C161        C589   1.576       .  S
C161        C604   1.579       .  S
C161        C613   1.578       .  S
C162        C529   1.591       .  S
C162        C544   1.601       .  S
C162        C553   1.594       .  S
C162        C565   1.588       .  S
C163        C484   1.589       .  S
C163        C493   1.595       .  S
C163        C505   1.590       .  S
C163        C517   1.588       .  S
C164        N182   1.353       .  A
C164        C201   1.460   1_645  S
C164        C784   1.481   1_545  S
N165        N182   1.328   1_455  A
N165        N187   1.317       .  A
N165       Co202   2.097       .  S
C166        N191   1.351       .  A
C166        C204   1.476       .  S
C166        H211   1.081       .  S
H167        C208   1.082       .  S
C168        N192   1.350       .  A
C168        C172   1.477       .  S
C168        H197   1.080       .  S
Co169       N187   2.092       .  S
Co169       N177   2.011       .  S
Co169       N209   2.024       .  S
Co169       N185   2.100       .  S
Co169      Cl213   2.445       .  S
N170        C208   1.327       .  A
N170        N177   1.315       .  A
N170       Co171   2.045       .  S
Co171       N174   2.105       .  S
Co171       N191   2.125       .  S
Co171       N178   2.038       .  S
Co171      Cl213   2.433       .  S
C172        N210   1.356       .  A
C172        C577   1.514       .  S
N173        N180   1.315       .  A
N173        N203   1.313       .  A
N173       Co206   2.057       .  S
N174        N192   1.319       .  A
N174        N210   1.330       .  A
N175        C204   1.357   1_565  A
N175        N185   1.331   1_565  A
H176        C201   1.081       .  S
N177        N198   1.311   1_545  A
N178        N196   1.322       .  A
N178        N183   1.312       .  A
C179        N183   1.336       .  A
C179        C207   1.444       .  S
C179        C355   1.411       .  S
N180        C195   1.324   1_455  A
N180       Co202   2.008       .  S
C181        N209   1.324   1_565  A
C181        C184   1.438   1_565  S
C181        H215   1.082       .  S
C184        N205   1.333   1_455  A
N185        N191   1.319       .  A
N186        C212   1.348   1_455  A
N186        N188   1.319       .  A
N186       Co202   2.097       .  S
N187        C201   1.345   1_545  A
N188        N216   1.332       .  A
N188       Co206   2.123       .  S
H189        C212   1.082       .  S
H190        C207   1.082       .  S
N192       Co206   2.112       .  S
N193        N205   1.308   1_455  A
N193        N209   1.319       .  A
N193       Co202   2.017       .  S
C194        N198   1.333   1_545  A
C194        C208   1.453       .  S
C195        C214   1.432       .  S
C195        H199   1.081       .  S
N196        C207   1.328       .  A
N196       Co206   2.045       .  S
C200        N216   1.358       .  A
C200        C212   1.465   1_455  S
C200        C508   1.498   1_455  S
Co202      Cl213   2.440       .  S
N203        C214   1.346   1_455  A
C204        C556   1.516   1_545  S
Co206      Cl213   2.442       .  S
C217        N235   1.351       .  A
C217        C254   1.431   1_554  S
N218        N235   1.315       .  A
N218        N240   1.317       .  A
N218       Co255   2.071       .  S
C219        N244   1.324   1_655  A
C219        C257   1.444   1_655  S
C219        H264   1.082       .  S
H220        C261   1.081       .  S
C221        N245   1.327       .  A
C221        C225   1.454       .  S
C221        H250   1.081       .  S
Co222       N240   2.013       .  S
Co222       N230   2.075       .  S
Co222       N262   2.071       .  S
Co222       N238   2.022       .  S
Co222      Cl266   2.424       .  S
N223        C261   1.351   1_455  A
N223        N230   1.315       .  A
N223       Co224   2.107       .  S
Co224       N227   2.030       .  S
Co224       N244   2.031       .  S
Co224       N231   2.103       .  S
Co224      Cl266   2.454       .  S
C225        N263   1.337   1_455  A
N226        N233   1.317       .  A
N226        N256   1.332       .  A
N226       Co259   2.109       .  S
N227        N245   1.320       .  A
N227        N263   1.313   1_455  A
N228        C257   1.333   1_556  A
N228        N238   1.308   1_556  A
H229        C254   1.081       .  S
N230        N251   1.326   1_554  A
N231        N249   1.317       .  A
N231        N236   1.331   1_455  A
C232        N236   1.357   1_455  A
C232        C260   1.471       .  S
C232        C496   1.512   1_455  S
N233        C248   1.351       .  A
N233       Co255   2.107       .  S
C234        N262   1.341   1_556  A
C234        C237   1.459   1_556  S
C234        H268   1.081       .  S
C237        N258   1.359       .  A
C237        C592   1.497   1_554  S
N238        N244   1.319       .  A
N239        C265   1.332       .  A
N239        N241   1.323       .  A
N239       Co255   2.061       .  S
N240        C254   1.323   1_554  A
N241        N269   1.317       .  A
N241       Co259   2.070       .  S
H242        C265   1.081       .  S
H243        C260   1.081       .  S
N245       Co259   2.058       .  S
N246        N258   1.333       .  A
N246        N262   1.315       .  A
N246       Co255   2.113       .  S
C247        N251   1.348   1_655  A
C247        C261   1.472   1_556  S
C247        C808   1.496       .  S
C248        C267   1.474       .  S
C248        H252   1.081       .  S
N249        C260   1.351       .  A
N249       Co259   2.111       .  S
C253        N269   1.345       .  A
C253        C265   1.448       .  S
C253        C345   1.425       .  S
Co255      Cl266   2.458       .  S
N256        C267   1.357       .  A
Co259      Cl266   2.433       .  S
C267        C532   1.514       .  S
C270        N288   1.358   1_546  A
C270        C307   1.457       .  S
C270        C772   1.494   1_545  S
N271        N288   1.331   1_545  A
N271        N293   1.316       .  A
N271       Co308   2.110       .  S
C272        N297   1.346       .  A
C272        C310   1.464       .  S
C272        H317   1.081       .  S
H273        C314   1.082       .  S
C274        N298   1.343       .  A
C274        C278   1.466       .  S
C274        H303   1.081       .  S
Co275       N293   2.076       .  S
Co275       N283   2.001       .  S
Co275       N315   2.003       .  S
Co275       N291   2.085       .  S
Co275      Cl319   2.426       .  S
N276        C314   1.329       .  A
N276        N283   1.317       .  A
N276       Co277   2.060       .  S
Co277       N280   2.107       .  S
Co277       N297   2.104       .  S
Co277       N284   2.035       .  S
Co277      Cl319   2.452       .  S
C278        N316   1.360       .  A
C278        C481   1.510       .  S
N279        N286   1.317       .  A
N279        N309   1.315       .  A
N279       Co312   2.062       .  S
N280        N298   1.317       .  A
N280        N316   1.335       .  A
N281        C310   1.354   1_556  A
N281        N291   1.330   1_556  A
H282        C307   1.081       .  S
N283        N304   1.309   1_554  A
N284        N302   1.321       .  A
N284        N289   1.313       .  A
C285        N289   1.337       .  A
C285        C313   1.456       .  S
C285        C340   1.417       .  S
N286        C301   1.325   1_545  A
N286       Co308   2.023       .  S
C287        N315   1.317   1_556  A
C287        C290   1.431   1_556  S
C287        H321   1.082       .  S
C290        N311   1.335   1_545  A
N291        N297   1.316       .  A
N292        C318   1.352   1_545  A
N292        N294   1.318       .  A
N292       Co308   2.115       .  S
N293        C307   1.341   1_554  A
N294        N322   1.335       .  A
N294       Co312   2.119       .  S
H295        C318   1.081       .  S
H296        C313   1.081       .  S
N298       Co312   2.099       .  S
N299        N311   1.309   1_545  A
N299        N315   1.320       .  A
N299       Co308   2.028       .  S
C300        N304   1.326   1_554  A
C300        C314   1.460       .  S
C301        C320   1.441   1_565  S
C301        H305   1.081       .  S
N302        C313   1.331       .  A
N302       Co312   2.067       .  S
C306        N322   1.359   1_565  A
C306        C318   1.471       .  S
C306        C541   1.513       .  S
Co308      Cl319   2.445       .  S
N309        C320   1.347       .  A
C310        C601   1.490   1_554  S
Co312      Cl319   2.430       .  S
C323        C472   1.589       .  S
C323        C652   1.575       .  S
C323        C700   1.582       .  S
C323        C721   1.584       .  S
C324        C460   1.591       .  S
C324        C625   1.594       .  S
C324        C712   1.590       .  S
C324        C748   1.590       .  S
C325        N343   1.360       .  A
C325        C362   1.467       .  S
C325        C457   1.512       .  S
N326        N343   1.334       .  A
N326        N348   1.317       .  A
N326       Co363   2.114       .  S
C327        N352   1.343       .  A
C327        C365   1.464       .  S
C327        H372   1.081       .  S
H328        C369   1.082       .  S
C329        N353   1.350       .  A
C329        C333   1.473       .  S
C329        H358   1.081       .  S
Co330       N348   2.098       .  S
Co330       N338   2.037       .  S
Co330       N370   2.050       .  S
Co330       N346   2.095       .  S
Co330      Cl374   2.448       .  S
N331        C369   1.328       .  A
N331        N338   1.321       .  A
N331       Co332   2.043       .  S
Co332       N335   2.101       .  S
Co332       N352   2.089       .  S
Co332       N339   2.038       .  S
Co332      Cl374   2.448       .  S
C333        N371   1.356       .  A
C333        C448   1.511       .  S
N334        N341   1.323       .  A
N334        N364   1.317       .  A
N334       Co367   2.053       .  S
N335        N353   1.319       .  A
N335        N371   1.333       .  A
N336        C365   1.354       .  A
N336        N346   1.329       .  A
H337        C362   1.081       .  S
N338        N359   1.312       .  A
N339        N357   1.318       .  A
N339        N344   1.315       .  A
C340        N344   1.339       .  A
C340        C368   1.451       .  S
N341        C356   1.327       .  A
N341       Co363   2.054       .  S
C342        N370   1.333       .  A
C342        C345   1.450       .  S
C342        H376   1.082       .  S
C345        N366   1.343       .  A
N346        N352   1.317       .  A
N347        C373   1.343       .  A
N347        N349   1.318       .  A
N347       Co363   2.085       .  S
N348        C362   1.345       .  A
N349        N377   1.333       .  A
N349       Co367   2.117       .  S
H350        C373   1.081       .  S
H351        C368   1.082       .  S
N353       Co367   2.124       .  S
N354        N366   1.316       .  A
N354        N370   1.318       .  A
N354       Co363   2.058       .  S
C355        N359   1.335       .  A
C355        C369   1.445       .  S
C356        C375   1.444       .  S
C356        H360   1.082       .  S
N357        C368   1.327       .  A
N357       Co367   2.051       .  S
C361        N377   1.360       .  A
C361        C373   1.461       .  S
C361        C469   1.502       .  S
Co363      Cl374   2.442       .  S
N364        C375   1.340       .  A
C365        C436   1.495       .  S
Co367      Cl374   2.447       .  S
C375        C393   1.422       .  S
C378        N396   1.354       .  A
C378        C415   1.466       .  S
C378        C793   1.496       .  S
N379        N396   1.329       .  A
N379        N401   1.316       .  A
N379       Co416   2.096       .  S
C380        N405   1.351       .  A
C380        C418   1.472       .  S
C380        H425   1.082       .  S
H381        C422   1.082       .  S
C382        N406   1.345       .  A
C382        C386   1.469       .  S
C382        H411   1.080       .  S
Co383       N401   2.088       .  S
Co383       N391   2.051       .  S
Co383       N423   2.066       .  S
Co383       N399   2.093       .  S
Co383      Cl427   2.446       .  S
N384        C422   1.333       .  A
N384        N391   1.319       .  A
N384       Co385   2.061       .  S
Co385       N388   2.101       .  S
Co385       N405   2.115       .  S
Co385       N392   2.058       .  S
Co385      Cl427   2.442       .  S
C386        N424   1.357       .  A
C386        C616   1.505       .  S
N387        N394   1.317       .  A
N387        N417   1.316       .  A
N387       Co420   2.060       .  S
N388        N406   1.317       .  A
N388        N424   1.330       .  A
N389        C418   1.354       .  A
N389        N399   1.329       .  A
H390        C415   1.081       .  S
N391        N412   1.316       .  A
N392        N410   1.324       .  A
N392        N397   1.314       .  A
C393        N397   1.339       .  A
C393        C421   1.447       .  S
N394        C409   1.328       .  A
N394       Co416   2.034       .  S
C395        N423   1.331       .  A
C395        C398   1.450       .  S
C395        H429   1.082       .  S
C398        N419   1.336       .  A
N399        N405   1.319       .  A
N400        C426   1.345       .  A
N400        N402   1.317       .  A
N400       Co416   2.100       .  S
N401        C415   1.344       .  A
N402        N430   1.334       .  A
N402       Co420   2.116       .  S
H403        C426   1.080       .  S
H404        C421   1.082       .  S
N406       Co420   2.093       .  S
N407        N419   1.314       .  A
N407        N423   1.322       .  A
N407       Co416   2.036       .  S
C408        N412   1.341       .  A
C408        C422   1.453       .  S
C409        C428   1.443       .  S
C409        H413   1.081       .  S
N410        C421   1.332       .  A
N410       Co420   2.055       .  S
C414        N430   1.361       .  A
C414        C426   1.470       .  S
C414        C520   1.515       .  S
Co416      Cl427   2.448       .  S
N417        C428   1.346       .  A
C418        C568   1.506       .  S
Co420      Cl427   2.450       .  S
C431        C445   1.589       .  S
C431        C664   1.589       .  S
C431        C676   1.603       .  S
C431        C760   1.587       .  S
C432        C433   1.574       .  S
C432        C637   1.566       .  S
C432        C688   1.576       .  S
C432        C736   1.579       .  S
C433        C434   1.417       .  A
C433        C438   1.431       .  A
C434        H439   1.083       .  S
C434        C435   1.405       .  A
C435        C436   1.407       .  A
C435        O440   1.371       .  S
C436        C437   1.401       .  A
C437        H441   1.083       .  S
C437        C438   1.406       .  A
C438        O442   1.373       .  S
O440        H444   0.992       .  S
O442        H443   0.993       .  S
C445        C446   1.422       .  A
C445        C450   1.426       .  A
C446        H451   1.079       .  S
C446        C447   1.416       .  A
C447        C448   1.412       .  A
C447        O452   1.372       .  S
C448        C449   1.404       .  A
C449        H453   1.083       .  S
C449        C450   1.411       .  A
C450        O454   1.372       .  S
O452        H456   0.992       .  S
O454        H455   0.992       .  S
C457        C458   1.404       .  A
C457        C462   1.409       .  A
C458        H463   1.083       .  S
C458        C459   1.414       .  A
C459        C460   1.430       .  A
C459        O464   1.370       .  S
C460        C461   1.423       .  A
C461        H465   1.083       .  S
C461        C462   1.415       .  A
C462        O466   1.371       .  S
O464        H468   0.992       .  S
O466        H467   0.992       .  S
C469        C470   1.406       .  A
C469        C474   1.404       .  A
C470        H475   1.083       .  S
C470        C471   1.412       .  A
C471        C472   1.425       .  A
C471        O476   1.372       .  S
C472        C473   1.424       .  A
C473        H477   1.077       .  S
C473        C474   1.409       .  A
C474        O478   1.371       .  S
O476        H480   0.991       .  S
O478        H479   0.992       .  S
C481        C482   1.406       .  A
C481        C486   1.411       .  A
C482        H487   1.083       .  S
C482        C483   1.417       .  A
C483        C484   1.428       .  A
C483        O488   1.372       .  S
C484        C485   1.419       .  A
C485        H489   1.078       .  S
C485        C486   1.408       .  A
C486        O490   1.371       .  S
O488        H492   0.991       .  S
O490        H491   0.992       .  S
C493        C494   1.422       .  A
C493        C498   1.429       .  A
C494        H499   1.076       .  S
C494        C495   1.410       .  A
C495        C496   1.408       .  A
C495        O500   1.372       .  S
C496        C497   1.408       .  A
C497        H501   1.083   1_655  S
C497        C498   1.419       .  A
C498        O502   1.373       .  S
O500        H504   0.992       .  S
O502        H503   0.990       .  S
C505        C506   1.424       .  A
C505        C510   1.427       .  A
C506        H511   1.077       .  S
C506        C507   1.406       .  A
C507        C508   1.401       .  A
C507        O512   1.372       .  S
C508        C509   1.405       .  A
C509        H513   1.083   1_655  S
C509        C510   1.419       .  A
C510        O514   1.374       .  S
O512        H516   0.991       .  S
O514        H515   0.992       .  S
C517        C518   1.416       .  A
C517        C522   1.428       .  A
C518        H523   1.078       .  S
C518        C519   1.411       .  A
C519        C520   1.413       .  A
C519        O524   1.371       .  S
C520        C521   1.407       .  A
C521        H525   1.083       .  S
C521        C522   1.416       .  A
C522        O526   1.371       .  S
O524        H528   0.992       .  S
O526        H527   0.992       .  S
C529        C530   1.422       .  A
C529        C534   1.428       .  A
C530        H535   1.077       .  S
C530        C531   1.416       .  A
C531        C532   1.412       .  A
C531        O536   1.372       .  S
C532        C533   1.405       .  A
C533        H537   1.083       .  S
C533        C534   1.415       .  A
C534        O538   1.372       .  S
O536        H540   0.991       .  S
O538        H539   0.991       .  S
C541        C542   1.405       .  A
C541        C546   1.408       .  A
C542        H547   1.083       .  S
C542        C543   1.420       .  A
C543        C544   1.428       .  A
C543        O548   1.372       .  S
C544        C545   1.425       .  A
C545        H549   1.077       .  S
C545        C546   1.416       .  A
C546        O550   1.372       .  S
O548        H552   0.992       .  S
O550        H551   0.992       .  S
C553        C554   1.422       .  A
C553        C558   1.429       .  A
C554        H559   1.079       .  S
C554        C555   1.416       .  A
C555        C556   1.411       .  A
C555        O560   1.371   1_565  S
C556        C557   1.406       .  A
C557        H561   1.083       .  S
C557        C558   1.415       .  A
C558        O562   1.372       .  S
O560        H564   0.992       .  S
O562        H563   0.992       .  S
C565        C566   1.418       .  A
C565        C570   1.434       .  A
C566        H571   1.083       .  S
C566        C567   1.409       .  A
C567        C568   1.410       .  A
C567        O572   1.371       .  S
C568        C569   1.402       .  A
C569        H573   1.083       .  S
C569        C570   1.416       .  A
C570        O574   1.372       .  S
O572        H576   0.991       .  S
O574        H575   0.992       .  S
C577        C578   1.407       .  A
C577        C582   1.412       .  A
C578        H583   1.083       .  S
C578        C579   1.415       .  A
C579        C580   1.428       .  A
C579        O584   1.371       .  S
C580        C581   1.417       .  A
C581        H585   1.081       .  S
C581        C582   1.411       .  A
C582        O586   1.370       .  S
O584        H588   0.991       .  S
O586        H587   0.992       .  S
C589        C590   1.416       .  A
C589        C594   1.428       .  A
C590        H595   1.079       .  S
C590        C591   1.405       .  A
C591        C592   1.409       .  A
C591        O596   1.371       .  S
C592        C593   1.402       .  A
C593        H597   1.083       .  S
C593        C594   1.412       .  A
C594        O598   1.373       .  S
O596        H600   0.992       .  S
O598        H599   0.992       .  S
C601        C602   1.402       .  A
C601        C606   1.403       .  A
C602        H607   1.084       .  S
C602        C603   1.414       .  A
C603        C604   1.426       .  A
C603        O608   1.373       .  S
C604        C605   1.421       .  A
C605        H609   1.079       .  S
C605        C606   1.406       .  A
C606        O610   1.372       .  S
O608        H612   0.991       .  S
O610        H611   0.991       .  S
C613        C614   1.415       .  A
C613        C618   1.428       .  A
C614        H619   1.082       .  S
C614        C615   1.408       .  A
C615        C616   1.412       .  A
C615        O620   1.370       .  S
C616        C617   1.404       .  A
C617        H621   1.083       .  S
C617        C618   1.410       .  A
C618        O622   1.371       .  S
O620        H624   0.991       .  S
O622        H623   0.992       .  S
C625        C626   1.423       .  A
C625        C630   1.428       .  A
C626        H631   1.078       .  S
C626        C627   1.414       .  A
C627        C628   1.406       .  A
C627        O632   1.372       .  S
C628        C629   1.403       .  A
C629        H633   1.083       .  S
C629        C630   1.417       .  A
C630        O634   1.373       .  S
O632        H636   0.992       .  S
O634        H635   0.993       .  S
C637        C638   1.413       .  A
C637        C642   1.426       .  A
C638        H643   1.079       .  S
C638        C639   1.402       .  A
C639        C640   1.408       .  A
C639        O644   1.372   1_545  S
C640        C641   1.401       .  A
C641        H645   1.083   1_554  S
C641        C642   1.407       .  A
C642        O646   1.372       .  S
O644        H648   0.993       .  S
O646        H647   0.991       .  S
C649        C650   1.404       .  A
C649        C654   1.407       .  A
C650        H655   1.084       .  S
C650        C651   1.411       .  A
C651        C652   1.427       .  A
C651        O656   1.374       .  S
C652        C653   1.418       .  A
C653        H657   1.083       .  S
C653        C654   1.406       .  A
C654        O658   1.370   1_554  S
O656        H660   0.991       .  S
O658        H659   0.992   1_556  S
C661        C662   1.407       .  A
C661        C666   1.406   1_545  A
C662        H667   1.083       .  S
C662        C663   1.414       .  A
C663        C664   1.423       .  A
C663        O668   1.372       .  S
C664        C665   1.425       .  A
C665        H669   1.078       .  S
C665        C666   1.412   1_545  A
C666        O670   1.372       .  S
O668        H672   0.990       .  S
O670        H671   0.992       .  S
C673        C674   1.408       .  A
C673        C678   1.405       .  A
C674        H679   1.083       .  S
C674        C675   1.425       .  A
C675        C676   1.429       .  A
C675        O680   1.372       .  S
C676        C677   1.426       .  A
C677        H681   1.076       .  S
C677        C678   1.414       .  A
C678        O682   1.372       .  S
O680        H684   0.992       .  S
O682        H683   0.992       .  S
C685        C686   1.398       .  A
C685        C690   1.402       .  A
C686        H691   1.084   1_454  S
C686        C687   1.407       .  A
C687        C688   1.427       .  A
C687        O692   1.372       .  S
C688        C689   1.420       .  A
C689        H693   1.078       .  S
C689        C690   1.404       .  A
C690        O694   1.372       .  S
O692        H696   0.992       .  S
O694        H695   0.992       .  S
C697        C698   1.398   1_554  A
C697        C702   1.410       .  A
C698        H703   1.084       .  S
C698        C699   1.409   1_556  A
C699        C700   1.433       .  A
C699        O704   1.371   1_554  S
C700        C701   1.416       .  A
C701        H705   1.084       .  S
C701        C702   1.405       .  A
C702        O706   1.371       .  S
O704        H708   0.992       .  S
O706        H707   0.993       .  S
C709        C710   1.410       .  A
C709        C714   1.409   1_455  A
C710        H715   1.083       .  S
C710        C711   1.418       .  A
C711        C712   1.426       .  A
C711        O716   1.372       .  S
C712        C713   1.420       .  A
C713        H717   1.078       .  S
C713        C714   1.413   1_455  A
C714        O718   1.371       .  S
O716        H720   0.992       .  S
O718        H719   0.991       .  S
C721        C722   1.420       .  A
C721        C726   1.428       .  A
C722        H727   1.079       .  S
C722        C723   1.411       .  A
C723        C724   1.406       .  A
C723        O728   1.371       .  S
C724        C725   1.403       .  A
C725        H729   1.083       .  S
C725        C726   1.417       .  A
C726        O730   1.372       .  S
O728        H732   0.992       .  S
O730        H731   0.992       .  S
C733        C734   1.402       .  A
C733        C738   1.409       .  A
C734        H739   1.084   1_545  S
C734        C735   1.410       .  A
C735        C736   1.428       .  A
C735        O740   1.373       .  S
C736        C737   1.417       .  A
C737        H741   1.079       .  S
C737        C738   1.404       .  A
C738        O742   1.371   1_455  S
O740        H744   0.991       .  S
O742        H743   0.992       .  S
C745        C746   1.407       .  A
C745        C750   1.418       .  A
C746        H751   1.083   1_455  S
C746        C747   1.421       .  A
C747        C748   1.429       .  A
C747        O752   1.373       .  S
C748        C749   1.415       .  A
C749        H753   1.080       .  S
C749        C750   1.409       .  A
C750        O754   1.370       .  S
O752        H756   0.992       .  S
O754        H755   0.992       .  S
C757        C758   1.401       .  A
C757        C762   1.413       .  A
C758        H763   1.083   1_545  S
C758        C759   1.412       .  A
C759        C760   1.431       .  A
C759        O764   1.373       .  S
C760        C761   1.418       .  A
C761        H765   1.079       .  S
C761        C762   1.415       .  A
C762        O766   1.371       .  S
O764        H768   0.992       .  S
O766        H767   0.992       .  S
C769        C770   1.422       .  A
C769        C774   1.423       .  A
C770        H775   1.078       .  S
C770        C771   1.404       .  A
C771        C772   1.403       .  A
C771        O776   1.372   1_556  S
C772        C773   1.405       .  A
C773        H777   1.083   1_565  S
C773        C774   1.409       .  A
C774        O778   1.374       .  S
O776        H780   0.992       .  S
O778        H779   0.989       .  S
C781        C782   1.421       .  A
C781        C786   1.426       .  A
C782        H787   1.078       .  S
C782        C783   1.400       .  A
C783        C784   1.398       .  A
C783        O788   1.372       .  S
C784        C785   1.402       .  A
C785        H789   1.084       .  S
C785        C786   1.413       .  A
C786        O790   1.374       .  S
O788        H792   0.992       .  S
O790        H791   0.992       .  S
C793        C794   1.403       .  A
C793        C798   1.408       .  A
C794        H799   1.084       .  S
C794        C795   1.409       .  A
C795        C796   1.426       .  A
C795        O800   1.374       .  S
C796        C797   1.416       .  A
C797        H801   1.078       .  S
C797        C798   1.407       .  A
C798        O802   1.371       .  S
O800        H804   0.994       .  S
O802        H803   0.995       .  S
C805        C806   1.416       .  A
C805        C810   1.426       .  A
C806        H811   1.079       .  S
C806        C807   1.407       .  A
C807        C808   1.410       .  A
C807        O812   1.372   1_655  S
C808        C809   1.401       .  A
C809        H813   1.083       .  S
C809        C810   1.409       .  A
C810        O814   1.374       .  S
O812        H816   0.992       .  S
O814        H815   0.989       .  S
