geometry optimzed in LAMMPS
_audit_creation_date              2020-11-30 
_audit_creation_method            'lammps2cif' 
_symmetry_space_group_name_H-M    'P1' 
_symmetry_Int_Tables_number       1 
_symmetry_cell_setting            triclinic 
loop_ 
_symmetry_equiv_pos_as_xyz 
  x,y,z 
_cell_length_a                    46.33728831 
_cell_length_b                    46.303094623529745 
_cell_length_c                    46.34689480904029 
_cell_angle_alpha                 89.9666922728364 
_cell_angle_beta                  90.04174762783477 
_cell_angle_gamma                 89.9569279943984 
loop_ 
_atom_site_label 
_atom_site_type_symbol 
_atom_site_fract_x 
_atom_site_fract_y 
_atom_site_fract_z 
_atom_site_charge 
C1          C  0.22449800  0.87249728  0.02730273     0.03300
C2          C  0.22349094  0.90291715  0.02768275    -0.12900
C3          C  0.22869789  0.91941216  0.00233528     0.00800
C4          C  0.23497998  0.90407722  0.97665041    -0.11400
C5          C  0.23506574  0.87375920  0.97588534     0.03300
C6          C  0.23043013  0.85822447  0.00135450    -0.10800
H7          H  0.21744249  0.91318817  0.04768927     0.08900
H8          H  0.23963971  0.91523990  0.95674534     0.06400
H9          H  0.23022609  0.83482018  0.00075101     0.06200
C10         C  0.61210149  0.00019273  0.01826627     0.03300
C11         C  0.60881693  0.01391625  0.99154793    -0.12900
C12         C  0.60582165  0.99779435  0.96613983     0.00800
C13         C  0.60579691  0.96746125  0.96763156    -0.11400
C14         C  0.60993498  0.95288226  0.99417762     0.03300
C15         C  0.61356886  0.96989758  0.01932564    -0.10800
H16         H  0.60933602  0.03729605  0.99046204     0.08900
H17         H  0.60252143  0.95562506  0.94782356     0.06400
H18         H  0.61787427  0.95999082  0.03999067     0.06200
C19         C  0.85678285  0.96604749  0.30019859     0.03300
C20         C  0.88701807  0.96593947  0.29942168    -0.12900
C21         C  0.90274309  0.94002767  0.29529912     0.00800
C22         C  0.88653958  0.91411629  0.29199891    -0.11400
C23         C  0.85627240  0.91411403  0.29407607     0.03300
C24         C  0.84161904  0.94012189  0.29807862    -0.10800
H25         H  0.89763507  0.98642691  0.30232048     0.08900
H26         H  0.89675211  0.89363822  0.28768434     0.06400
H27         H  0.81822339  0.94026666  0.29877915     0.06200
C28         C  0.98200710  0.96060101  0.70825657     0.03300
C29         C  0.99600336  0.93433327  0.71303288    -0.12900
C30         C  0.98027217  0.90866185  0.71503858     0.00800
C31         C  0.95005180  0.90947570  0.71253481    -0.11400
C32         C  0.93526040  0.93576983  0.70712276     0.03300
C33         C  0.95198268  0.96120605  0.70434485    -0.10800
H34         H  0.01928352  0.93392512  0.71540957     0.08900
H35         H  0.93844935  0.88949663  0.71571350     0.06400
H36         H  0.94204841  0.98177839  0.69957409     0.06200
C37         C  0.93630469  0.62825029  0.06456845     0.03300
C38         C  0.90950294  0.63213350  0.07793028    -0.12900
C39         C  0.88426278  0.63456468  0.06167106     0.00800
C40         C  0.88564690  0.63309295  0.03143423    -0.11400
C41         C  0.91228253  0.62869462  0.01695093     0.03300
C42         C  0.93750443  0.62608496  0.03426311    -0.10800
H43         H  0.90827378  0.63370864  0.10124205     0.08900
H44         H  0.86581388  0.63646961  0.01969704     0.06400
H45         H  0.95841682  0.62272170  0.02465673     0.06200
C46         C  0.89802389  0.23101730  0.93884320     0.03300
C47         C  0.89778106  0.23433498  0.96898936    -0.12900
C48         C  0.92296008  0.22957076  0.98572312     0.00800
C49         C  0.94878248  0.22285439  0.97080967    -0.11400
C50         C  0.94970542  0.22216656  0.94057231     0.03300
C51         C  0.92418014  0.22553204  0.92482639    -0.10800
H52         H  0.87766105  0.24061965  0.97886471     0.08900
H53         H  0.96854893  0.21803368  0.98213072     0.06400
H54         H  0.92470863  0.22393490  0.90149319     0.06200
C55         C  0.61972185  0.87315264  0.97270757     0.03300
C56         C  0.61788505  0.90343179  0.97104265    -0.12900
C57         C  0.61120072  0.92029776  0.99566407     0.00800
C58         C  0.60630774  0.90562660  0.02200528    -0.11400
C59         C  0.61002615  0.87560329  0.02427724     0.03300
C60         C  0.61609367  0.85952189  0.99940788    -0.10800
H61         H  0.62230305  0.91343709  0.95046120     0.08900
H62         H  0.59970915  0.91721065  0.04111621     0.06400
H63         H  0.61818191  0.83624439  0.00084224     0.06200
C64         C  0.22443821  0.99844359  0.02833844     0.03300
C65         C  0.22136115  0.01311966  0.00210377    -0.12900
C66         C  0.22048360  0.99811211  0.97596893     0.00800
C67         C  0.22270743  0.96781952  0.97613864    -0.11400
C68         C  0.22648329  0.95213737  0.00225616     0.03300
C69         C  0.22747254  0.96818756  0.02828955    -0.10800
H70         H  0.21956386  0.03646965  0.00203171     0.08900
H71         H  0.22060731  0.95693786  0.95566166     0.06400
H72         H  0.23047407  0.95758378  0.04881518     0.06200
C73         C  0.85702612  0.96366936  0.70917574     0.03300
C74         C  0.88734015  0.96277924  0.71047017    -0.12900
C75         C  0.90271638  0.93679216  0.70541924     0.00800
C76         C  0.88650936  0.91156794  0.69963270    -0.11400
C77         C  0.85621413  0.91175462  0.70076282     0.03300
C78         C  0.84169992  0.93796693  0.70492483    -0.10800
H79         H  0.89848872  0.98251396  0.71591621     0.08900
H80         H  0.89706414  0.89138494  0.69457854     0.06400
H81         H  0.81830545  0.93833151  0.70513307     0.06200
C82         C  0.98198313  0.96608726  0.29266218     0.03300
C83         C  0.99666731  0.93976742  0.29341179    -0.12900
C84         C  0.98151636  0.91372731  0.29428990     0.00800
C85         C  0.95131699  0.91401314  0.29599899    -0.11400
C86         C  0.93550588  0.94013986  0.29458223     0.03300
C87         C  0.95160709  0.96622262  0.29244858    -0.10800
H88         H  0.02006521  0.93951316  0.29299353     0.08900
H89         H  0.94071311  0.89340002  0.29806083     0.06400
H90         H  0.94121236  0.98692331  0.29018799     0.06200
C91         C  0.88986215  0.62600361  0.93668531     0.03300
C92         C  0.91657731  0.62923445  0.92311531    -0.12900
C93         C  0.94185119  0.63242253  0.93924852     0.00800
C94         C  0.94042317  0.63214632  0.96952373    -0.11400
C95         C  0.91385453  0.62802893  0.98419832     0.03300
C96         C  0.88869616  0.62435110  0.96701371    -0.10800
H97         H  0.91763433  0.63018414  0.89975916     0.08900
H98         H  0.96023265  0.63615071  0.98108114     0.06400
H99         H  0.86787550  0.62050957  0.97667713     0.06200
C100        C  0.94768419  0.23253308  0.06483814     0.03300
C101        C  0.94809653  0.23338710  0.03459453    -0.12900
C102        C  0.92228990  0.23124620  0.01830929     0.00800
C103        C  0.89590885  0.23001526  0.03371679    -0.11400
C104        C  0.89528858  0.23163121  0.06397754     0.03300
C105        C  0.92126517  0.23223562  0.07934772    -0.10800
H106        H  0.96889160  0.23514441  0.02430505     0.08900
H107        H  0.87553217  0.22761297  0.02270573     0.06400
H108        H  0.92094669  0.23199023  0.10273813     0.06200
C109        C  0.35718027  0.46146603  0.81669587     0.03300
C110        C  0.38744538  0.46160442  0.81556576    -0.12900
C111        C  0.40329038  0.43588943  0.81080495     0.00800
C112        C  0.38751752  0.40978740  0.80812872    -0.11400
C113        C  0.35728468  0.40930523  0.81088469     0.03300
C114        C  0.34233139  0.43529972  0.81460651    -0.10800
H115        H  0.39816097  0.48212034  0.81831513     0.08900
H116        H  0.39826217  0.38961988  0.80348595     0.06400
H117        H  0.31893430  0.43527041  0.81494223     0.06200
C118        C  0.35664687  0.46436339  0.19746958     0.03300
C119        C  0.38695581  0.46437269  0.19766130    -0.12900
C120        C  0.40296757  0.43864408  0.19282880     0.00800
C121        C  0.38706486  0.41295890  0.18787024    -0.11400
C122        C  0.35673986  0.41274409  0.18856151     0.03300
C123        C  0.34175771  0.43853431  0.19317111    -0.10800
H124        H  0.39738353  0.48457921  0.20259532     0.08900
H125        H  0.39768713  0.39271790  0.18345057     0.06400
H126        H  0.31838056  0.43840494  0.19420838     0.06200
C127        C  0.10954532  0.37404679  0.52690142     0.03300
C128        C  0.10651728  0.40430991  0.52735368    -0.12900
C129        C  0.10963445  0.42109116  0.50189493     0.00800
C130        C  0.11400822  0.40606862  0.47557027    -0.11400
C131        C  0.11547908  0.37574917  0.47476358     0.03300
C132        C  0.11338944  0.36001241  0.50043984    -0.10800
H133        H  0.10216945  0.41434642  0.54791262     0.08900
H134        H  0.11742581  0.41749288  0.45555568     0.06400
H135        H  0.11560681  0.33670602  0.49987094     0.06200
O136        O  0.17057449  0.23205429  0.69642357    -0.78300
C137        C  0.22277282  0.24277466  0.77248525     0.82700
O138        O  0.21521196  0.13880765  0.70997975    -0.79500
O139        O  0.19787312  0.15763553  0.81150307    -0.80900
O140        O  0.10944812  0.20119157  0.77798099    -0.80700
O141        O  0.12491893  0.22381526  0.70839092    -0.79400
Zn142      Zn  0.19548712  0.20856139  0.72302780     1.55700
O143        O  0.14419691  0.20390997  0.81109245    -0.80800
Cd144      Cd  0.13081581  0.19126545  0.73971849     1.59700
Cd145      Cd  0.18275483  0.14242161  0.74106393     1.59600
O146        O  0.11165543  0.15331733  0.72526984    -0.80800
O147        O  0.17283501  0.18409151  0.74812626    -1.91300
Cd148      Cd  0.18188463  0.19355558  0.78948684     1.59900
O149        O  0.14634393  0.12004675  0.72758096    -0.80700
O150        O  0.21074771  0.22803017  0.79241422    -0.79400
C151        C  0.22812677  0.15829106  0.69537112     0.83200
C152        C  0.14373950  0.23689148  0.69302619     0.82800
O153        O  0.21883854  0.23696835  0.74593021    -0.78300
C154        C  0.11760898  0.20467011  0.80409967     0.83600
O155        O  0.22227597  0.18498729  0.69848484    -0.78400
C156        C  0.12024696  0.12724358  0.72251694     0.83800
C157        C  0.20097539  0.13112777  0.80460695     0.84100
O158        O  0.19606053  0.12225617  0.77899708    -0.80800
C159        C  0.72721989  0.37431977  0.52231356     0.03300
C160        C  0.72709123  0.40473742  0.52198366    -0.12900
C161        C  0.72939762  0.42051733  0.49577951     0.00800
C162        C  0.73107873  0.40441865  0.46979933    -0.11400
C163        C  0.72997225  0.37406714  0.46985885     0.03300
C164        C  0.72837312  0.35927245  0.49613383    -0.10800
H165        H  0.72429577  0.41560943  0.54238421     0.08900
H166        H  0.73327659  0.41498193  0.44916584     0.06400
H167        H  0.72741234  0.33587646  0.49616498     0.06200
C168        C  0.39718238  0.13085558  0.56264788     0.03300
C169        C  0.42312794  0.13625720  0.57709060    -0.12900
C170        C  0.44903602  0.13864704  0.56195063     0.00800
C171        C  0.44912183  0.13522311  0.53188690    -0.11400
C172        C  0.42345482  0.12878615  0.51654515     0.03300
C173        C  0.39748651  0.12649501  0.53260285    -0.10800
H174        H  0.42308231  0.13914403  0.60030996     0.08900
H175        H  0.46932997  0.13861739  0.52081939     0.06400
H176        H  0.37723130  0.12170308  0.52216301     0.06200
O177        O  0.62333123  0.24396862  0.75538610    -0.78300
C178        C  0.69706388  0.24733683  0.69716243     0.82700
O179        O  0.62915640  0.14963908  0.71014972    -0.79500
O180        O  0.73297395  0.16172598  0.72945002    -0.80900
O181        O  0.70307612  0.21240341  0.81371005    -0.80700
O182        O  0.63301464  0.23072722  0.80063589    -0.79400
Zn183      Zn  0.64706123  0.21852724  0.72946934     1.55700
O184        O  0.73464220  0.21403794  0.77742219    -0.80800
Cd185      Cd  0.66475099  0.19935587  0.79396841     1.59700
Cd186      Cd  0.66095633  0.15126434  0.74215420     1.59600
O187        O  0.65192400  0.16141147  0.81409421    -0.80800
O188        O  0.67113259  0.19245011  0.75159511    -1.91300
Cd189      Cd  0.71254936  0.20003865  0.74121236     1.59900
O190        O  0.64618693  0.12944977  0.77856893    -0.80700
O191        O  0.71647121  0.23140879  0.70864744    -0.79400
C192        C  0.61522550  0.17006663  0.69788564     0.83200
C193        C  0.61954623  0.24646904  0.78246539     0.82800
O194        O  0.67057769  0.24435371  0.70375474    -0.78300
C195        C  0.72847838  0.21701775  0.80408692     0.83600
O196        O  0.62017787  0.19647276  0.70370449    -0.78400
C197        C  0.64550118  0.13612174  0.80526815     0.83800
C198        C  0.72438203  0.13569106  0.72649309     0.84100
O199        O  0.69790377  0.12877711  0.72974704    -0.80800
C200        C  0.10877774  0.50110419  0.47848876     0.03300
C201        C  0.10607620  0.47081664  0.47776113    -0.12900
C202        C  0.10987895  0.45385799  0.50303257     0.00800
C203        C  0.11531595  0.46869421  0.52927531    -0.11400
C204        C  0.11694556  0.49897399  0.53022242     0.03300
C205        C  0.11394116  0.51489997  0.50481425    -0.10800
H206        H  0.10147505  0.46090595  0.45719260     0.08900
H207        H  0.11934172  0.45715886  0.54911978     0.06400
H208        H  0.11584182  0.53823267  0.50550925     0.06200
O209        O  0.17129130  0.73208404  0.80935478    -0.78300
C210        C  0.11406499  0.73889382  0.73621831     0.82700
O211        O  0.12579449  0.63792937  0.79376010    -0.79500
O212        O  0.14781801  0.65915043  0.69342074    -0.80900
O213        O  0.23272733  0.70532026  0.72849126    -0.80700
O214        O  0.21705069  0.72273945  0.79865174    -0.79400
Zn215      Zn  0.14662865  0.70733436  0.78417108     1.55700
O216        O  0.19755005  0.71055411  0.69600036    -0.80800
Cd217      Cd  0.21172885  0.69165499  0.76605711     1.59700
Cd218      Cd  0.15956228  0.64280959  0.76417280     1.59600
O219        O  0.23111512  0.65332960  0.77979043    -0.80800
O220        O  0.16961125  0.68451829  0.75785652    -1.91300
Cd221      Cd  0.16053928  0.69555663  0.71679246     1.59900
O222        O  0.19543615  0.62097179  0.77973329    -0.80700
O223        O  0.12781352  0.72692575  0.71551312    -0.79400
C224        C  0.11468525  0.65641126  0.81088422     0.83200
C225        C  0.19809648  0.73604724  0.81362887     0.82800
O226        O  0.11982295  0.73318468  0.76244329    -0.78300
C227        C  0.22418921  0.71167270  0.70301405     0.83600
O228        O  0.12185739  0.68291121  0.81016827    -0.78400
C229        C  0.22175933  0.62776170  0.78423743     0.83800
C230        C  0.14454427  0.63250066  0.69974882     0.84100
O231        O  0.14820174  0.62324735  0.72544784    -0.80800
C232        C  0.48094492  0.46305352  0.79930790     0.03300
C233        C  0.45070582  0.46240554  0.80145819    -0.12900
C234        C  0.43580738  0.43645087  0.80795675     0.00800
C235        C  0.45244357  0.41098301  0.81130227    -0.11400
C236        C  0.48250120  0.41123296  0.80739792     0.03300
C237        C  0.49658415  0.43734881  0.80193598    -0.10800
H238        H  0.43925551  0.48234671  0.79755728     0.08900
H239        H  0.44251102  0.39066419  0.81695067     0.06400
H240        H  0.51985260  0.43762633  0.79945873     0.06200
C241        C  0.38961936  0.74110737  0.56447756     0.03300
C242        C  0.38814835  0.74349434  0.53421804    -0.12900
C243        C  0.41320540  0.74018627  0.51682038     0.00800
C244        C  0.43984788  0.73548729  0.53116927    -0.11400
C245        C  0.44163412  0.73483339  0.56140209     0.03300
C246        C  0.41643016  0.73718493  0.57776668    -0.10800
H247        H  0.36722358  0.74740226  0.52471506     0.08900
H248        H  0.45947933  0.73146676  0.51932876     0.06400
H249        H  0.41762676  0.73563714  0.60108660     0.06200
C250        C  0.72154316  0.49948432  0.46999115     0.03300
C251        C  0.72597335  0.51444713  0.49573371    -0.12900
C252        C  0.73234150  0.49978731  0.52132008     0.00800
C253        C  0.73436201  0.46945098  0.52101373    -0.11400
C254        C  0.72908419  0.45334161  0.49549176     0.03300
C255        C  0.72277796  0.46912226  0.46991752    -0.10800
H256        H  0.72393156  0.53777117  0.49589936     0.08900
H257        H  0.74011115  0.45887770  0.54097094     0.06400
H258        H  0.71782713  0.45832950  0.44989957     0.06200
O259        O  0.71761736  0.73846034  0.74606809    -0.78300
C260        C  0.64607411  0.73760253  0.80342256     0.82700
O261        O  0.71382914  0.63940916  0.78111113    -0.79500
O262        O  0.60963956  0.65591895  0.76932614    -0.80900
O263        O  0.63877104  0.70913670  0.68426703    -0.80700
O264        O  0.70701996  0.73098199  0.69983928    -0.79400
Zn265      Zn  0.69528216  0.70972026  0.76931615     1.55700
O266        O  0.60612358  0.70715680  0.71951657    -0.80800
Cd267      Cd  0.67737173  0.69721722  0.70359570     1.59700
Cd268      Cd  0.68039687  0.64457386  0.75086646     1.59600
O269        O  0.69178898  0.66184583  0.68021601    -0.80800
O270        O  0.67060049  0.68650753  0.74509839    -1.91300
Cd271      Cd  0.62917254  0.69417325  0.75600308     1.59900
O272        O  0.69299166  0.62571451  0.71200716    -0.80700
O273        O  0.62595490  0.72524654  0.78912992    -0.79400
C274        C  0.72878878  0.65851927  0.79422817     0.83200
C275        C  0.72034230  0.74488608  0.71952390     0.82800
O276        O  0.67249822  0.73268029  0.79782957    -0.78300
C277        C  0.61281200  0.71153395  0.69313467     0.83600
O278        O  0.72349043  0.68532674  0.79125649    -0.78400
C279        C  0.69588137  0.63529907  0.68633418     0.83800
C280        C  0.61786153  0.62958590  0.77029395     0.84100
O281        O  0.64367458  0.62241321  0.76391929    -0.80800
C282        C  0.45067397  0.11949742  0.43874143     0.03300
C283        C  0.44981521  0.12012651  0.46902314    -0.12900
C284        C  0.42376882  0.12566173  0.48405870     0.00800
C285        C  0.39828091  0.12912540  0.46750664    -0.11400
C286        C  0.39870792  0.12693293  0.43724390     0.03300
C287        C  0.42509043  0.12298645  0.42310500    -0.10800
H288        H  0.46980978  0.11641824  0.48041636     0.08900
H289        H  0.37790264  0.13397666  0.47766628     0.06400
H290        H  0.42579866  0.12327721  0.39972782     0.06200
O291        O  0.61546911  0.23536169  0.24640172    -0.78300
C292        C  0.60921050  0.15720259  0.29786075     0.82700
O293        O  0.70968418  0.22545170  0.29051554    -0.79500
O294        O  0.69275832  0.12273552  0.26857777    -0.80900
O295        O  0.64673288  0.15994830  0.18230575    -0.80700
O296        O  0.62958754  0.22934741  0.20079862    -0.79400
Zn297      Zn  0.64030148  0.20926934  0.27106575     1.55700
O298        O  0.64547855  0.12402866  0.21434410    -0.80800
Cd299      Cd  0.65980425  0.19610350  0.20542605     1.59700
Cd300      Cd  0.70684031  0.19407645  0.25819048     1.59600
O301        O  0.69849104  0.20815435  0.18641818    -0.80800
O302        O  0.66562035  0.18601114  0.24721170    -1.91300
Cd303      Cd  0.65650047  0.14394706  0.25329800     1.59900
O304        O  0.73034462  0.20701685  0.22240546    -0.80700
O305        O  0.62348771  0.13845860  0.28356622    -0.79400
C306        C  0.68976856  0.23842566  0.30445741     0.83200
C307        C  0.61366126  0.24158278  0.21965763     0.82800
O308        O  0.61397424  0.18414158  0.29491841    -0.78300
C309        C  0.64284053  0.13337302  0.18853559     0.83600
O310        O  0.66319484  0.23409581  0.29878930    -0.78400
C311        C  0.72418152  0.21095790  0.19585614     0.83800
C312        C  0.71849520  0.13034139  0.27475059     0.84100
O313        O  0.72677381  0.15648594  0.27232449    -0.80800
C314        C  0.43557119  0.74318731  0.43668017     0.03300
C315        C  0.43673924  0.74441919  0.46699179    -0.12900
C316        C  0.41159627  0.74060913  0.48411825     0.00800
C317        C  0.38506144  0.73625085  0.46948585    -0.11400
C318        C  0.38349126  0.73658397  0.43917266     0.03300
C319        C  0.40884600  0.73971679  0.42310476    -0.10800
H320        H  0.45757303  0.74800491  0.47673190     0.08900
H321        H  0.36540720  0.73190434  0.48119897     0.06400
H322        H  0.40781113  0.73929097  0.39973165     0.06200
C323        C  0.48205924  0.46450989  0.19446872     0.03300
C324        C  0.45176614  0.46451268  0.19293149    -0.12900
C325        C  0.43574357  0.43842220  0.19360277     0.00800
C326        C  0.45160366  0.41220301  0.19568429    -0.11400
C327        C  0.48192033  0.41216345  0.19658259     0.03300
C328        C  0.49685674  0.43826206  0.19587921    -0.10800
H329        H  0.44125090  0.48521277  0.19139897     0.08900
H330        H  0.44098824  0.39157516  0.19753472     0.06400
H331        H  0.52024455  0.43812978  0.19684785     0.06200
O332        O  0.66133854  0.64389239  0.30174452    -0.78300
C333        C  0.60742076  0.72048551  0.30572988     0.82700
O334        O  0.62223141  0.65106018  0.20680900    -0.79500
O335        O  0.63861062  0.75476070  0.22115003    -0.80900
O336        O  0.72399925  0.72287710  0.27241918    -0.80700
O337        O  0.70753878  0.65350453  0.29284538    -0.79400
Zn338      Zn  0.63734015  0.66937115  0.27627554     1.55700
O339        O  0.68935992  0.75629371  0.27184693    -0.80800
Cd340      Cd  0.70343189  0.68479292  0.26015641     1.59700
Cd341      Cd  0.65335186  0.68317156  0.21031620     1.59600
O342        O  0.72483636  0.67131739  0.22276902    -0.80800
O343        O  0.66153727  0.69289443  0.25169284    -1.91300
Cd344      Cd  0.65223741  0.73474150  0.25898712     1.59900
O345        O  0.69064048  0.67047607  0.18896326    -0.80700
O346        O  0.62025903  0.73963547  0.29062793    -0.79400
C347        C  0.60737569  0.63848878  0.22626077     0.83200
C348        C  0.68805330  0.63967240  0.30664918     0.82800
O349        O  0.61234277  0.69368110  0.30209144    -0.78300
C350        C  0.71567732  0.74897062  0.27563607     0.83600
O351        O  0.61120865  0.64381015  0.25293433    -0.78400
C352        C  0.71694644  0.66770749  0.19658559     0.83800
C353        C  0.63444595  0.74570338  0.19549652     0.84100
O354        O  0.63860842  0.71934456  0.18866238    -0.80800
O355        O  0.11156676  0.68172928  0.20014688    -0.78300
C356        C  0.10673478  0.73827057  0.27442391     0.82700
O357        O  0.20645055  0.72336407  0.20901062    -0.79500
O358        O  0.18818866  0.70599731  0.31351876    -0.80900
O359        O  0.13720270  0.62106814  0.28002970    -0.80700
O360        O  0.12181268  0.63581601  0.20990030    -0.79400
Zn361      Zn  0.13672071  0.70638024  0.22514410     1.55700
O362        O  0.13595581  0.65618811  0.31292653    -0.80800
Cd363      Cd  0.15260884  0.64105270  0.24278049     1.59700
Cd364      Cd  0.20222824  0.69245922  0.24210514     1.59600
O365        O  0.19095516  0.62003474  0.23216649    -0.80800
O366        O  0.16062775  0.68315196  0.25027070    -1.91300
Cd367      Cd  0.15133880  0.69251416  0.29164481     1.59900
O368        O  0.22421368  0.65487285  0.23106204    -0.80700
O369        O  0.12016593  0.72482592  0.29435426    -0.79400
C370        C  0.18699362  0.73620270  0.19421447     0.83200
C371        C  0.10785432  0.65488863  0.19563322     0.82800
O372        O  0.11119281  0.73269524  0.24791060    -0.78300
C373        C  0.13194411  0.62994718  0.30557334     0.83600
O374        O  0.16033803  0.73131790  0.19870869    -0.78400
C375        C  0.21707562  0.62832103  0.22906798     0.83800
C376        C  0.21417067  0.71073008  0.30567899     0.84100
O377        O  0.22220077  0.70721434  0.27956242    -0.80800
O378        O  0.22133334  0.24035040  0.24918583    -0.78300
C379        C  0.14743432  0.24287256  0.30542606     0.82700
O380        O  0.21615129  0.14473406  0.29188588    -0.79500
O381        O  0.11224030  0.15897611  0.27345504    -0.80900
O382        O  0.14513745  0.20682650  0.18797650    -0.80700
O383        O  0.21310569  0.22814886  0.20352345    -0.79400
Zn384      Zn  0.19801819  0.21395020  0.27419679     1.55700
O385        O  0.11157149  0.20895976  0.22239774    -0.80800
Cd386      Cd  0.18287166  0.19523662  0.20915482     1.59700
Cd387      Cd  0.18352679  0.14685220  0.26081224     1.59600
O388        O  0.19770523  0.15774692  0.18928683    -0.80800
O389        O  0.17444467  0.18825868  0.25117674    -1.91300
Cd390      Cd  0.13279959  0.19651279  0.25996670     1.59900
O391        O  0.19673291  0.12447476  0.22411153    -0.80700
O392        O  0.12830258  0.22834731  0.29191190    -0.79400
C393        C  0.23047544  0.16485595  0.30413506     0.83200
C394        C  0.22572211  0.24383181  0.22230644     0.82800
O395        O  0.17420208  0.23924833  0.30036735    -0.78300
C396        C  0.11910799  0.21088471  0.19595677     0.83600
O397        O  0.22558905  0.19138603  0.29875997    -0.78400
C398        C  0.20120544  0.13180459  0.19794248     0.83800
C399        C  0.12042711  0.13303926  0.27804141     0.84100
O400        O  0.14673424  0.12542351  0.27506557    -0.80800
C401        C  0.51325258  0.53944435  0.17988651    -0.11200
C402        C  0.53260067  0.54206748  0.20303387     0.15300
C403        C  0.53497709  0.51938019  0.22321708     0.02200
C404        C  0.51778223  0.49483980  0.22008514    -0.15600
C405        C  0.49870827  0.49180711  0.19669435    -0.10400
C406        C  0.49663395  0.51441186  0.17622098     0.08900
C407        C  0.54985884  0.56873755  0.20609586     0.10000
S408        S  0.55963579  0.52034669  0.25336707    -0.24700
H409        H  0.51953854  0.47771240  0.23595385     0.20200
S410        S  0.47423634  0.51229124  0.14446543    -0.30400
H411        H  0.51151209  0.55681328  0.16429464     0.10500
C412        C  0.57457256  0.57366880  0.18910660     0.03700
C413        C  0.59227463  0.59751263  0.19514832    -0.12700
C414        C  0.58575343  0.61646892  0.21791436    -0.08400
C415        C  0.55987525  0.61237040  0.23364323     0.07200
C416        C  0.54248741  0.58841135  0.22780543    -0.13500
S417        S  0.58462249  0.54847755  0.16111664    -0.30400
H418        H  0.61199702  0.60059167  0.18302476     0.11400
S419        S  0.54755760  0.63702175  0.26113737    -0.27500
H420        H  0.52320639  0.58482324  0.24053888     0.08700
H421        H  0.47745521  0.48235860  0.14048539     0.27100
H422        H  0.60871655  0.56389257  0.15096870     0.21900
H423        H  0.55816224  0.66197758  0.24743751     0.27200
H424        H  0.58134512  0.53632235  0.23947231     0.16000
C425        C  0.30678231  0.74729505  0.41066032    -0.11200
C426        C  0.30549742  0.72579232  0.38937214     0.15300
C427        C  0.32915538  0.70689815  0.38587828     0.02200
C428        C  0.35383821  0.71051812  0.40289157    -0.15600
C429        C  0.35565304  0.73258340  0.42362413    -0.10400
C430        C  0.33163262  0.75109224  0.42759208     0.08900
C431        C  0.28046747  0.72495836  0.36939856     0.10000
S432        S  0.32953066  0.67827624  0.35947222    -0.24700
H433        H  0.37200921  0.69611235  0.39971116     0.20200
S434        S  0.33193296  0.78106453  0.45241598    -0.30400
H435        H  0.28875809  0.76199489  0.41324076     0.10500
C436        C  0.25417546  0.71189615  0.37718198     0.03700
C437        C  0.23228476  0.70882358  0.35637624    -0.12700
C438        C  0.23598759  0.71887765  0.32790266    -0.08400
C439        C  0.26164095  0.73404547  0.32102522     0.07200
C440        C  0.28368348  0.73638025  0.34158386    -0.13500
S441        S  0.24922721  0.69759646  0.41308926    -0.30400
H442        H  0.21273168  0.69736560  0.36201397     0.11400
S443        S  0.26744807  0.75154611  0.28676862    -0.27500
H444        H  0.30364313  0.74712472  0.33583052     0.08700
H445        H  0.36111214  0.78822840  0.44818956     0.27100
H446        H  0.22008460  0.68978034  0.40975304     0.21900
H447        H  0.23854972  0.76033282  0.28343655     0.27200
H448        H  0.29967471  0.67298383  0.35972504     0.16000
C449        C  0.55992188  0.71932387  0.37247683    -0.11200
C450        C  0.53803655  0.73872569  0.36465312     0.15300
C451        C  0.54087200  0.75466372  0.33875234     0.02200
C452        C  0.56480973  0.74984989  0.32076403    -0.15600
C453        C  0.58577385  0.72903185  0.32775386    -0.10400
C454        C  0.58374498  0.71450842  0.35456372     0.08900
C455        C  0.51185419  0.74021142  0.38310355     0.10000
S456        S  0.51429522  0.78056302  0.32681389    -0.24700
H457        H  0.56618689  0.76125375  0.30038573     0.20200
S458        S  0.61093916  0.68967380  0.36731079    -0.30400
H459        H  0.55814189  0.70742648  0.39254500     0.10500
C460        C  0.49115714  0.71794139  0.38232136     0.03700
C461        C  0.46675496  0.71957291  0.40012196    -0.12700
C462        C  0.46228072  0.74312387  0.41873948    -0.08400
C463        C  0.48299020  0.76559848  0.41929769     0.07200
C464        C  0.50764959  0.76374303  0.40172974    -0.13500
S465        S  0.49553549  0.68764795  0.35812196    -0.30400
H466        H  0.45097758  0.70234477  0.39960594     0.11400
S467        S  0.47877468  0.79760631  0.44101877    -0.27500
H468        H  0.52347614  0.78094704  0.40225207     0.08700
H469        H  0.63426691  0.70394894  0.35412887     0.27100
H470        H  0.47036689  0.67276976  0.36625394     0.21900
H471        H  0.44848029  0.79847265  0.43946881     0.27200
H472        H  0.49027106  0.76777649  0.34013249     0.16000
C473        C  0.53341321  0.35446560  0.22379213    -0.11200
C474        C  0.53592188  0.33665907  0.19945305     0.15300
C475        C  0.51921160  0.34286499  0.17464611     0.02200
C476        C  0.50078612  0.36694408  0.17473272    -0.15600
C477        C  0.49860082  0.38495777  0.19897911    -0.10400
C478        C  0.51497139  0.37840274  0.22387112     0.08900
C479        C  0.55548493  0.31141266  0.20142327     0.10000
S480        S  0.52071448  0.32173466  0.14191037    -0.24700
H481        H  0.48859155  0.37213638  0.15544763     0.20200
S482        S  0.51351698  0.39990560  0.25630066    -0.30400
H483        H  0.54597294  0.34962806  0.24294124     0.10500
C484        C  0.58417159  0.31235580  0.19130468     0.03700
C485        C  0.60251370  0.28855915  0.19602732    -0.12700
C486        C  0.59263696  0.26394049  0.21073374    -0.08400
C487        C  0.56341304  0.26260178  0.21932806     0.07200
C488        C  0.54535700  0.28641457  0.21502115    -0.13500
S489        S  0.59762336  0.34426553  0.17344458    -0.30400
H490        H  0.62489520  0.28959570  0.18940561     0.11400
S491        S  0.54762372  0.23093292  0.23534998    -0.27500
H492        H  0.52317186  0.28549601  0.22237003     0.08700
H493        H  0.48493772  0.40946397  0.25268196     0.27100
H494        H  0.62528737  0.33337019  0.16728049     0.21900
H495        H  0.56613238  0.21092983  0.22197683     0.27200
H496        H  0.53624668  0.29791443  0.15234329     0.16000
C497        C  0.50791169  0.10207698  0.38263204    -0.11200
C498        C  0.52672501  0.12551427  0.38630652     0.15300
C499        C  0.52246685  0.14443144  0.40983705     0.02200
C500        C  0.49847165  0.14077746  0.42779620    -0.15600
C501        C  0.47860090  0.11840618  0.42306324    -0.10400
C502        C  0.48417146  0.09810936  0.40093758     0.08900
C503        C  0.54781346  0.13218073  0.36315554     0.10000
S504        S  0.54604463  0.17454342  0.41712852    -0.24700
H505        H  0.49451352  0.15639063  0.44475858     0.20200
S506        S  0.46152283  0.06711555  0.39457339    -0.30400
H507        H  0.51115276  0.08737303  0.36473698     0.10500
C508        C  0.57250414  0.11513496  0.35800946     0.03700
C509        C  0.59179453  0.12306267  0.33588807    -0.12700
C510        C  0.58683194  0.14773715  0.31882016    -0.08400
C511        C  0.56136135  0.16397192  0.32352858     0.07200
C512        C  0.54246812  0.15623825  0.34566469    -0.13500
S513        S  0.58007700  0.08418329  0.38047168    -0.30400
H514        H  0.61124902  0.11056745  0.33248549     0.11400
S515        S  0.55095935  0.19416333  0.30140252    -0.27500
H516        H  0.52313721  0.16897186  0.34914532     0.08700
H517        H  0.45109960  0.06491366  0.42297878     0.27100
H518        H  0.60571616  0.07585121  0.36652962     0.21900
H519        H  0.56090758  0.18160393  0.27561807     0.27200
H520        H  0.57092986  0.16219744  0.40491785     0.16000
C521        C  0.27569472  0.12981082  0.36349897    -0.11200
C522        C  0.30053139  0.14713910  0.36275308     0.15300
C523        C  0.30242117  0.16954842  0.34217281     0.02200
C524        C  0.27908259  0.17492014  0.32380522    -0.15600
C525        C  0.25402433  0.15783779  0.32463820    -0.10400
C526        C  0.25238805  0.13501066  0.34487713     0.08900
C527        C  0.32412399  0.14130579  0.38358957     0.10000
S528        S  0.33413900  0.19174726  0.33784174    -0.24700
H529        H  0.28080729  0.19226507  0.30818394     0.20200
S530        S  0.22078580  0.11273146  0.34909530    -0.30400
H531        H  0.27419761  0.11252702  0.37920389     0.10500
C532        C  0.33092323  0.16072841  0.40603331     0.03700
C533        C  0.35486471  0.15518479  0.42382028    -0.12700
C534        C  0.37183297  0.13030350  0.41998943    -0.08400
C535        C  0.36372364  0.11004220  0.39858208     0.07200
C536        C  0.34032017  0.11596705  0.38044788    -0.13500
S537        S  0.30902533  0.19244273  0.41211248    -0.30400
H538        H  0.36082177  0.17059482  0.44033546     0.11400
S539        S  0.38184307  0.07592709  0.39360507    -0.27500
H540        H  0.33471894  0.10072162  0.36361592     0.08700
H541        H  0.20091475  0.13534650  0.34493847     0.27100
H542        H  0.32486752  0.20328163  0.43562755     0.21900
H543        H  0.38990947  0.07244522  0.42265943     0.27200
H544        H  0.35421627  0.17070244  0.34654686     0.16000
C545        C  0.70102094  0.59764131  0.61328747    -0.11200
C546        C  0.72027427  0.57510935  0.61946856     0.15300
C547        C  0.73167088  0.57255363  0.64761626     0.02200
C548        C  0.72323118  0.59227474  0.66898730    -0.15600
C549        C  0.70384957  0.61487345  0.66290966    -0.10400
C550        C  0.69233890  0.61717899  0.63464828     0.08900
C551        C  0.72622432  0.55364263  0.59648260     0.10000
S552        S  0.75659031  0.54437268  0.65778811    -0.24700
H553        H  0.73213668  0.59011759  0.69050592     0.20200
S554        S  0.66493229  0.64309198  0.62482124    -0.30400
H555        H  0.69179847  0.59932530  0.59184889     0.10500
C556        C  0.71062745  0.52757952  0.59480700     0.03700
C557        C  0.71458658  0.50926061  0.57098850    -0.12700
C558        C  0.73387692  0.51645476  0.54873590    -0.08400
C559        C  0.75083934  0.54175732  0.55150989     0.07200
C560        C  0.74645785  0.56026142  0.57501896    -0.13500
S561        S  0.68439901  0.51853348  0.62215410    -0.30400
H562        H  0.70144155  0.49005743  0.56887431     0.11400
S563        S  0.77831083  0.55169489  0.52578513    -0.27500
H564        H  0.75875586  0.58010478  0.57651396     0.08700
H565        H  0.64937705  0.64047101  0.65076069     0.27100
H566        H  0.67620298  0.49170242  0.61054064     0.21900
H567        H  0.78418915  0.52337832  0.51650948     0.27200
H568        H  0.76843382  0.53985568  0.63026683     0.16000
C569        C  0.72384778  0.59945724  0.36945069    -0.11200
C570        C  0.70605342  0.57496158  0.37148905     0.15300
C571        C  0.68337464  0.57152316  0.35146111     0.02200
C572        C  0.67839323  0.59283017  0.33063354    -0.15600
C573        C  0.69581025  0.61762655  0.32870570    -0.10400
C574        C  0.71890173  0.62085104  0.34847241     0.08900
C575        C  0.70996513  0.55455644  0.39600450     0.10000
S576        S  0.65988817  0.54046264  0.35143137    -0.24700
H577        H  0.66071272  0.58988670  0.31559626     0.20200
S578        S  0.74151567  0.65248988  0.34942228    -0.30400
H579        H  0.74105214  0.60244088  0.38501497     0.10500
C580        C  0.73385601  0.53573254  0.39774561     0.03700
C581        C  0.73637686  0.51674719  0.42135056    -0.12700
C582        C  0.71551516  0.51627401  0.44332611    -0.08400
C583        C  0.69122601  0.53466605  0.44107758     0.07200
C584        C  0.68885548  0.55366201  0.41767610    -0.13500
S585        S  0.76104034  0.53584874  0.36986526    -0.30400
H586        H  0.75510512  0.50287623  0.42323988     0.11400
S587        S  0.66257070  0.53500312  0.46741888    -0.27500
H588        H  0.67031349  0.56787981  0.41627537     0.08700
H589        H  0.71893367  0.67216403  0.34427650     0.27100
H590        H  0.77806696  0.51348644  0.38141202     0.21900
H591        H  0.66573470  0.50603442  0.47598737     0.27200
H592        H  0.68048592  0.52077827  0.36195245     0.16000
C593        C  0.51730715  0.74661447  0.59141206    -0.11200
C594        C  0.51982804  0.72302427  0.61027658     0.15300
C595        C  0.49747027  0.70237363  0.61140047     0.02200
C596        C  0.47262693  0.70636276  0.59469652    -0.15600
C597        C  0.46964083  0.73033786  0.57638078    -0.10400
C598        C  0.49243296  0.75050245  0.57442235     0.08900
C599        C  0.54457681  0.72190584  0.63054240     0.10000
S600        S  0.49889456  0.67105535  0.63451657    -0.24700
H601        H  0.45524510  0.69078454  0.59624500     0.20200
S602        S  0.48906190  0.78226482  0.55199977    -0.30400
H603        H  0.53446821  0.76246171  0.59081153     0.10500
C604        C  0.57147765  0.71040042  0.62240230     0.03700
C605        C  0.59370372  0.70841046  0.64295595    -0.12700
C606        C  0.58968473  0.71779198  0.67162270    -0.08400
C607        C  0.56294354  0.73060876  0.67915690     0.07200
C608        C  0.54069639  0.73210601  0.65872839    -0.13500
S609        S  0.57696378  0.69698085  0.58623646    -0.30400
H610        H  0.61398843  0.69853725  0.63687402     0.11400
S611        S  0.55592292  0.74622402  0.71406043    -0.27500
H612        H  0.52011947  0.74143126  0.66481424     0.08700
H613        H  0.51599329  0.79444623  0.55890738     0.27100
H614        H  0.60533281  0.68695338  0.59038950     0.21900
H615        H  0.58377380  0.75791293  0.71722178     0.27200
H616        H  0.52901900  0.66766690  0.63380736     0.16000
C617        C  0.51410112  0.53773484  0.80909762    -0.11200
C618        C  0.53179264  0.53954279  0.78459295     0.15300
C619        C  0.53082893  0.51712623  0.76394463     0.02200
C620        C  0.51360968  0.49281235  0.76900107    -0.15600
C621        C  0.49670885  0.49045514  0.79402070    -0.10400
C622        C  0.49670298  0.51346953  0.81409248     0.08900
C623        C  0.55329149  0.56326429  0.78264183     0.10000
S624        S  0.55140829  0.51810987  0.73093670    -0.24700
H625        H  0.51355572  0.47540564  0.75337168     0.20200
S626        S  0.47640744  0.51250949  0.84726596    -0.30400
H627        H  0.51487057  0.55476603  0.82511120     0.10500
C628        C  0.54515843  0.59219070  0.77794590     0.03700
C629        C  0.56659632  0.61350128  0.77523632    -0.12700
C630        C  0.59621734  0.60666929  0.77735766    -0.08400
C631        C  0.60399658  0.57766376  0.78367910     0.07200
C632        C  0.58259037  0.55644522  0.78574776    -0.13500
S633        S  0.50756771  0.60173377  0.77389487    -0.30400
H634        H  0.56016481  0.63546242  0.77047978     0.11400
S635        S  0.64056768  0.56601546  0.79009219    -0.27500
H636        H  0.58881689  0.53429237  0.79009199     0.08700
H637        H  0.47978201  0.48273785  0.85221042     0.27100
H638        H  0.51171771  0.63162400  0.77041437     0.21900
H639        H  0.64745999  0.58989084  0.80757048     0.27200
H640        H  0.55178727  0.54836094  0.72826941     0.16000
C641        C  0.32106608  0.76093459  0.60612743    -0.11200
C642        C  0.31577054  0.73496681  0.62094284     0.15300
C643        C  0.33426717  0.71118336  0.61622489     0.02200
C644        C  0.35745778  0.71380663  0.59711121    -0.15600
C645        C  0.36321968  0.73982895  0.58267589    -0.10400
C646        C  0.34473470  0.76371686  0.58729650     0.08900
C647        C  0.29090385  0.73278619  0.64112457     0.10000
S648        S  0.32945809  0.67678704  0.63388784    -0.24700
H649        H  0.37153755  0.69539648  0.59378331     0.20200
S650        S  0.35056897  0.79836931  0.57052696    -0.30400
H651        H  0.30696393  0.77927339  0.60965315     0.10500
C652        C  0.29324920  0.74157073  0.67015114     0.03700
C653        C  0.27093200  0.73504789  0.68968436    -0.12700
C654        C  0.24611116  0.71989346  0.68087730    -0.08400
C655        C  0.24363731  0.71181724  0.65142533     0.07200
C656        C  0.26581226  0.71861063  0.63198283    -0.13500
S657        S  0.32542294  0.75969407  0.68260431    -0.30400
H658        H  0.27302416  0.74139066  0.71206443     0.11400
S659        S  0.21405288  0.69069660  0.63756035    -0.27500
H660        H  0.26416175  0.71146622  0.60977620     0.08700
H661        H  0.38079298  0.79632458  0.56899150     0.27100
H662        H  0.31703786  0.76236050  0.71164405     0.21900
H663        H  0.21394429  0.67107547  0.66076287     0.27200
H664        H  0.31909519  0.68781420  0.66013578     0.16000
C665        C  0.09916768  0.59716418  0.37351603    -0.11200
C666        C  0.11303059  0.57023606  0.37420255     0.15300
C667        C  0.13013590  0.56175778  0.35045596     0.02200
C668        C  0.13480214  0.58114766  0.32771998    -0.15600
C669        C  0.12238883  0.60885567  0.32777735    -0.10400
C670        C  0.10330311  0.61633808  0.35044167     0.08900
C671        C  0.11164017  0.55274109  0.40102647     0.10000
S672        S  0.14774607  0.52704567  0.34859902    -0.24700
H673        H  0.14919257  0.57490506  0.31038472     0.20200
S674        S  0.08339125  0.64980312  0.35107618    -0.30400
H675        H  0.08555462  0.60355857  0.39141639     0.10500
C676        C  0.13527389  0.55172597  0.42016272     0.03700
C677        C  0.13364195  0.53458289  0.44504824    -0.12700
C678        C  0.10870057  0.51863775  0.45159519    -0.08400
C679        C  0.08467106  0.52039453  0.43282355     0.07200
C680        C  0.08649141  0.53720427  0.40764397    -0.13500
S681        S  0.16732923  0.57283403  0.41322445    -0.30400
H682        H  0.15191196  0.53353915  0.45959769     0.11400
S683        S  0.05089020  0.50259268  0.44022747    -0.27500
H684        H  0.06813153  0.53835717  0.39319412     0.08700
H685        H  0.07997850  0.65159757  0.32095342     0.27100
H686        H  0.18309541  0.56361235  0.43748801     0.21900
H687        H  0.05296529  0.50423789  0.47044912     0.27200
H688        H  0.12757611  0.51209589  0.36560887     0.16000
C689        C  0.15029437  0.54711369  0.58767560    -0.11200
C690        C  0.12733511  0.54979264  0.60721045     0.15300
C691        C  0.10170265  0.53402462  0.60227240     0.02200
C692        C  0.09934095  0.51662887  0.57761383    -0.15600
C693        C  0.12207750  0.51445253  0.55774447    -0.10400
C694        C  0.14801222  0.52957508  0.56314744     0.08900
C695        C  0.13040568  0.57027254  0.63165632     0.10000
S696        S  0.07088727  0.53606164  0.62593167    -0.24700
H697        H  0.07929672  0.50531364  0.57345193     0.20200
S698        S  0.17867740  0.52790765  0.53924441    -0.30400
H699        H  0.17002650  0.55911102  0.59139505     0.10500
C700        C  0.14495379  0.56243838  0.65715907     0.03700
C701        C  0.14836134  0.58287385  0.67930578    -0.12700
C702        C  0.13768788  0.61125343  0.67652606    -0.08400
C703        C  0.12234309  0.61866267  0.65107743     0.07200
C704        C  0.11915179  0.59824709  0.62895157    -0.13500
S705        S  0.15926187  0.52638402  0.66137898    -0.30400
H706        H  0.16013407  0.57689632  0.69858710     0.11400
S707        S  0.10554752  0.65336264  0.64567794    -0.27500
H708        H  0.10768760  0.60417651  0.60943350     0.08700
H709        H  0.17313848  0.50002110  0.52862933     0.27100
H710        H  0.17054534  0.53020243  0.68930084     0.21900
H711        H  0.09588894  0.65594337  0.67434161     0.27200
H712        H  0.08636361  0.54179715  0.65136013     0.16000
C713        C  0.51420912  0.33820260  0.78707222    -0.11200
C714        C  0.53609558  0.33520966  0.80781193     0.15300
C715        C  0.53898462  0.35645389  0.82948652     0.02200
C716        C  0.52089710  0.38071051  0.82920283    -0.15600
C717        C  0.49953042  0.38412087  0.80798238    -0.10400
C718        C  0.49608962  0.36244130  0.78678229     0.08900
C719        C  0.55776459  0.31188009  0.80401985     0.10000
S720        S  0.56563706  0.35402225  0.85776099    -0.24700
H721        H  0.52363804  0.39721687  0.84554821     0.20200
S722        S  0.47026205  0.36524765  0.75776632    -0.30400
H723        H  0.51215925  0.32220692  0.77012849     0.10500
C724        C  0.55083826  0.28244129  0.80777445     0.03700
C725        C  0.57186942  0.26124275  0.80207175    -0.12700
C726        C  0.59957411  0.26903550  0.79262533    -0.08400
C727        C  0.60663311  0.29852692  0.78974935     0.07200
C728        C  0.58569583  0.31954840  0.79528574    -0.13500
S729        S  0.51523554  0.27195577  0.81959330    -0.30400
H730        H  0.56648852  0.23856922  0.80399322     0.11400
S731        S  0.64184329  0.31064917  0.77843816    -0.27500
H732        H  0.59109722  0.34213751  0.79239229     0.08700
H733        H  0.47256905  0.39532338  0.75426130     0.27100
H734        H  0.52090387  0.24218291  0.82175979     0.21900
H735        H  0.65733316  0.28727878  0.79013575     0.27200
H736        H  0.56702212  0.32368802  0.85834227     0.16000
C737        C  0.50354385  0.17282128  0.61277553    -0.11200
C738        C  0.52521069  0.15164307  0.61333559     0.15300
C739        C  0.52263614  0.12721000  0.59529098     0.02200
C740        C  0.49805889  0.12399579  0.57795006    -0.15600
C741        C  0.47604440  0.14484063  0.57792858    -0.10400
C742        C  0.47925574  0.16989625  0.59506450     0.08900
C743        C  0.54946673  0.15520822  0.63391570     0.10000
S744        S  0.54965454  0.09920332  0.59382612    -0.24700
H745        H  0.49575964  0.10474580  0.56485595     0.20200
S746        S  0.45317077  0.19885950  0.59533773    -0.30400
H747        H  0.50551710  0.19172191  0.62642504     0.10500
C748        C  0.57033667  0.17696757  0.63007434     0.03700
C749        C  0.59171011  0.18097841  0.65113462    -0.12700
C750        C  0.59281630  0.16360622  0.67601077    -0.08400
C751        C  0.57195729  0.14161913  0.67965083     0.07200
C752        C  0.55074481  0.13749578  0.65846653    -0.13500
S753        S  0.56999529  0.19933904  0.59811739    -0.30400
H754        H  0.60770472  0.19776870  0.64824277     0.11400
S755        S  0.57001098  0.11943685  0.71156304    -0.27500
H756        H  0.53448190  0.12097929  0.66159063     0.08700
H757        H  0.44357683  0.19483087  0.56683091     0.27100
H758        H  0.59486891  0.21544581  0.60469972     0.21900
H759        H  0.57708542  0.14174935  0.73090254     0.27200
H760        H  0.57329184  0.11701936  0.60046871     0.16000
C761        C  0.74327866  0.31896889  0.41014700    -0.11200
C762        C  0.71797033  0.32193460  0.39369746     0.15300
C763        C  0.69790648  0.34367862  0.40126740     0.02200
C764        C  0.70306013  0.36113214  0.42542385    -0.15600
C765        C  0.72793239  0.35762481  0.44237593    -0.10400
C766        C  0.74854840  0.33662360  0.43420025     0.08900
C767        C  0.71169723  0.30038894  0.37066088     0.10000
S768        S  0.66486397  0.34965113  0.38153466    -0.24700
H769        H  0.68705199  0.37704929  0.43159248     0.20200
S770        S  0.78170048  0.33095241  0.45381866    -0.30400
H771        H  0.75873777  0.30230673  0.40458904     0.10500
C772        C  0.72790896  0.29886657  0.34493946     0.03700
C773        C  0.72077137  0.27812427  0.32388956    -0.12700
C774        C  0.69749386  0.25904349  0.32785129    -0.08400
C775        C  0.68164946  0.26032022  0.35392670     0.07200
C776        C  0.68896467  0.28088641  0.37493419    -0.13500
S777        S  0.75688321  0.32409605  0.33841410    -0.30400
H778        H  0.73288414  0.27721907  0.30394469     0.11400
S779        S  0.65299899  0.23489277  0.36143607    -0.27500
H780        H  0.67700163  0.28181538  0.39497000     0.08700
H781        H  0.78409961  0.35928403  0.46444594     0.27100
H782        H  0.76526723  0.31299622  0.31144351     0.21900
H783        H  0.64437904  0.24667524  0.38803726     0.27200
H784        H  0.67545381  0.34050845  0.35462578     0.16000
C785        C  0.69362772  0.31232955  0.64665825    -0.11200
C786        C  0.71498728  0.30535763  0.62643547     0.15300
C787        C  0.73245753  0.28076555  0.63127082     0.02200
C788        C  0.72741714  0.26318274  0.65547381    -0.15600
C789        C  0.70491347  0.26923212  0.67490185    -0.10400
C790        C  0.68864605  0.29489874  0.67086264     0.08900
C791        C  0.71775995  0.32364557  0.60015622     0.10000
S792        S  0.76079163  0.27003510  0.60685854    -0.24700
H793        H  0.74023888  0.24380223  0.65828709     0.20200
S794        S  0.66165165  0.30713273  0.69607343    -0.30400
H795        H  0.68058922  0.33151258  0.64344203     0.10500
C796        C  0.69739028  0.32180224  0.57760969     0.03700
C797        C  0.70090345  0.33879284  0.55275429    -0.12700
C798        C  0.72435525  0.35779408  0.54979394    -0.08400
C799        C  0.74465968  0.35976286  0.57257544     0.07200
C800        C  0.74101896  0.34287156  0.59751364    -0.13500
S801        S  0.66729208  0.29714151  0.58013771    -0.30400
H802        H  0.68534895  0.33723587  0.53538158     0.11400
S803        S  0.77616273  0.38252913  0.57080172    -0.27500
H804        H  0.75671658  0.34432080  0.61479367     0.08700
H805        H  0.67658245  0.29740470  0.72068336     0.27100
H806        H  0.65456688  0.30418025  0.55348089     0.21900
H807        H  0.78043546  0.37968435  0.54090785     0.27200
H808        H  0.74752729  0.28016604  0.58152204     0.16000
C809        C  0.29358330  0.12475002  0.65842947    -0.11200
C810        C  0.29381491  0.14008902  0.63229756     0.15300
C811        C  0.27119189  0.15961727  0.62626824     0.02200
C812        C  0.25000950  0.16474985  0.64713022    -0.15600
C813        C  0.25030107  0.15030006  0.67380176    -0.10400
C814        C  0.27226804  0.12979045  0.67931257     0.08900
C815        C  0.31964092  0.13797277  0.61353242     0.10000
S816        S  0.26863915  0.17930797  0.59274781    -0.24700
H817        H  0.23311702  0.18029076  0.64250778     0.20200
S818        S  0.27573128  0.11114765  0.71329187    -0.30400
H819        H  0.31104309  0.10991822  0.66324365     0.10500
C820        C  0.33995503  0.16058772  0.61252247     0.03700
C821        C  0.36453723  0.15772192  0.59521934    -0.12700
C822        C  0.36976072  0.13247974  0.57921525    -0.08400
C823        C  0.34943516  0.10970907  0.58041819     0.07200
C824        C  0.32451436  0.11281425  0.59736506    -0.13500
S825        S  0.33522587  0.19270567  0.63419026    -0.30400
H826        H  0.38009406  0.17514490  0.59438658     0.11400
S827        S  0.35454683  0.07579638  0.56202635    -0.27500
H828        H  0.30905372  0.09529741  0.59840208     0.08700
H829        H  0.26795040  0.13502820  0.73035879     0.27100
H830        H  0.35984417  0.20748156  0.62435863     0.21900
H831        H  0.38478404  0.07540302  0.56452640     0.27200
H832        H  0.28365306  0.15907868  0.57584631     0.16000
C833        C  0.11287962  0.28055492  0.37024196    -0.11200
C834        C  0.12931362  0.30600187  0.37178127     0.15300
C835        C  0.15035998  0.31120230  0.35036136     0.02200
C836        C  0.15524442  0.29055757  0.32879431    -0.15600
C837        C  0.13909167  0.26487588  0.32735578    -0.10400
C838        C  0.11727191  0.26022044  0.34819091     0.08900
C839        C  0.12582678  0.32536589  0.39723607     0.10000
S840        S  0.17196855  0.34358966  0.34954014    -0.24700
H841        H  0.17193853  0.29460145  0.31293041     0.20200
S842        S  0.09632377  0.22756210  0.34940353    -0.30400
H843        H  0.09696003  0.27616628  0.38678914     0.10500
C844        C  0.10026452  0.34124026  0.40213210     0.03700
C845        C  0.09782367  0.35848849  0.42702806    -0.12700
C846        C  0.12038975  0.36012667  0.44721020    -0.08400
C847        C  0.14622198  0.34479123  0.44185366     0.07200
C848        C  0.14855471  0.32749273  0.41716843    -0.13500
S849        S  0.07087414  0.33973296  0.37657325    -0.30400
H850        H  0.07804134  0.37021460  0.43121043     0.11400
S851        S  0.17691377  0.34623926  0.46579007    -0.27500
H852        H  0.16827443  0.31545205  0.41348338     0.08700
H853        H  0.08342155  0.23273245  0.32240561     0.27100
H854        H  0.05206572  0.35821409  0.39162099     0.21900
H855        H  0.17164831  0.37423118  0.47629061     0.27200
H856        H  0.15129398  0.36165917  0.36246773     0.16000
C857        C  0.10439243  0.29534415  0.64914645    -0.11200
C858        C  0.12200190  0.29686101  0.62452465     0.15300
C859        C  0.14621964  0.27845344  0.62259233     0.02200
C860        C  0.15248839  0.25939518  0.64518898    -0.15600
C861        C  0.13506565  0.25774213  0.66999922    -0.10400
C862        C  0.11081745  0.27631725  0.67197584     0.08900
C863        C  0.11576215  0.31861763  0.60168199     0.10000
S864        S  0.17023449  0.27836946  0.59193784    -0.24700
H865        H  0.17115618  0.24542665  0.64316561     0.20200
S866        S  0.08844983  0.27828434  0.70367742    -0.30400
H867        H  0.08602617  0.30972629  0.65096737     0.10500
C868        C  0.09431282  0.31391623  0.58061697     0.03700
C869        C  0.09184689  0.33305450  0.55714166    -0.12700
C870        C  0.11062200  0.35672582  0.55403087    -0.08400
C871        C  0.13172465  0.36164267  0.57559888     0.07200
C872        C  0.13372077  0.34288240  0.59928257    -0.13500
S873        S  0.07130348  0.28253605  0.58270932    -0.30400
H874        H  0.07577225  0.32914729  0.54063694     0.11400
S875        S  0.15827547  0.38999621  0.57310822    -0.27500
H876        H  0.15048106  0.34633223  0.61523348     0.08700
H877        H  0.11156525  0.27605873  0.72326507     0.27100
H878        H  0.05702743  0.28682823  0.55625499     0.21900
H879        H  0.16271535  0.38721023  0.54321681     0.27200
H880        H  0.14931942  0.28553780  0.57115927     0.16000
C881        C  0.28338147  0.28835927  0.18368299    -0.11200
C882        C  0.28253886  0.31390920  0.19993965     0.15300
C883        C  0.26233261  0.31653557  0.22254847     0.02200
C884        C  0.24427762  0.29332454  0.22911749    -0.15600
C885        C  0.24534711  0.26744095  0.21334735    -0.10400
C886        C  0.26523545  0.26500134  0.19030229     0.08900
C887        C  0.30415832  0.33678251  0.19442799     0.10000
S888        S  0.25893787  0.34867979  0.24431688    -0.24700
H889        H  0.22902671  0.29561021  0.24669662     0.20200
S890        S  0.26995618  0.23220808  0.16990481    -0.30400
H891        H  0.29906876  0.28619785  0.16648783     0.10500
C892        C  0.32783693  0.34072468  0.21311621     0.03700
C893        C  0.34578119  0.36482903  0.20953237    -0.12700
C894        C  0.34052006  0.38514245  0.18764459    -0.08400
C895        C  0.31778646  0.38014789  0.16786232     0.07200
C896        C  0.29981266  0.35609369  0.17152742    -0.13500
S897        S  0.33452902  0.31559384  0.24220327    -0.30400
H898        H  0.36314969  0.36866831  0.22469177     0.11400
S899        S  0.31035531  0.40383699  0.13785580    -0.27500
H900        H  0.28178906  0.35286977  0.15697132     0.08700
H901        H  0.26650035  0.21359311  0.19365512     0.27100
H902        H  0.35971020  0.32888413  0.25272574     0.21900
H903        H  0.33876698  0.41402929  0.13477072     0.27200
H904        H  0.26743982  0.36836582  0.22287300     0.16000
C905        C  0.30680350  0.51944231  0.23207399    -0.11200
C906        C  0.30276750  0.53903332  0.20933112     0.15300
C907        C  0.31832973  0.53512622  0.18340591     0.02200
C908        C  0.33664166  0.51116383  0.18043888    -0.15600
C909        C  0.34006713  0.49116065  0.20295062    -0.10400
C910        C  0.32532557  0.49570304  0.22922765     0.08900
C911        C  0.28110975  0.56236416  0.21300618     0.10000
S912        S  0.31490760  0.55926043  0.15303190    -0.24700
H913        H  0.34777243  0.50769017  0.16017355     0.20200
S914        S  0.32859027  0.47151188  0.25957998    -0.30400
H915        H  0.29500536  0.52240719  0.25204164     0.10500
C916        C  0.25284078  0.55959524  0.20214269     0.03700
C917        C  0.23252878  0.58152890  0.20738880    -0.12700
C918        C  0.23976232  0.60621403  0.22353697    -0.08400
C919        C  0.26816395  0.60856855  0.23478669     0.07200
C920        C  0.28847273  0.58685955  0.22911584    -0.13500
S921        S  0.24246147  0.52771971  0.18223747    -0.30400
H922        H  0.21085739  0.57941212  0.19892038     0.11400
S923        S  0.27948281  0.63755563  0.25816468    -0.27500
H924        H  0.31004131  0.58868214  0.23798975     0.08700
H925        H  0.35690847  0.46239001  0.25364518     0.27100
H926        H  0.21339414  0.53542867  0.17802605     0.21900
H927        H  0.25396626  0.63763286  0.27461967     0.27200
H928        H  0.30805921  0.58410570  0.16902117     0.16000
C929        C  0.26325553  0.31412836  0.76969201    -0.11200
C930        C  0.28363116  0.31033345  0.79176294     0.15300
C931        C  0.28271868  0.28488711  0.80861035     0.02200
C932        C  0.26180761  0.26378647  0.80279754    -0.15600
C933        C  0.24205703  0.26714383  0.78004237    -0.10400
C934        C  0.24247702  0.29303951  0.76376518     0.08900
C935        C  0.30447878  0.33401852  0.79747166     0.10000
S936        S  0.30817997  0.27762252  0.83715203    -0.24700
H937        H  0.26173514  0.24405923  0.81539384     0.20200
S938        S  0.21646734  0.30107316  0.73588033    -0.30400
H939        H  0.26331443  0.33393659  0.75721132     0.10500
C940        C  0.32569023  0.34187445  0.77708583     0.03700
C941        C  0.34352586  0.36579962  0.78248953    -0.12700
C942        C  0.34076640  0.38194671  0.80798792    -0.08400
C943        C  0.32051144  0.37300804  0.82902571     0.07200
C944        C  0.30234252  0.34955152  0.82333803    -0.13500
S945        S  0.33010685  0.32138641  0.74422002    -0.30400
H946        H  0.35908697  0.37253205  0.76642778     0.11400
S947        S  0.31699118  0.39036386  0.86368403    -0.27500
H948        H  0.28631476  0.34336587  0.83919639     0.08700
H949        H  0.19318559  0.28731443  0.74967792     0.27100
H950        H  0.35343810  0.33733249  0.73315280     0.21900
H951        H  0.34593305  0.39928026  0.86566885     0.27200
H952        H  0.33138933  0.29267745  0.82470707     0.16000
C953        C  0.30231915  0.51989466  0.83482235    -0.11200
C954        C  0.30404380  0.53719088  0.81001229     0.15300
C955        C  0.32510301  0.53090265  0.78891862     0.02200
C956        C  0.34310563  0.50690500  0.79250329    -0.15600
C957        C  0.34072360  0.48892143  0.81675800    -0.10400
C958        C  0.32050113  0.49593757  0.83849547     0.08900
C959        C  0.28197685  0.55988069  0.80532455     0.10000
S960        S  0.32878174  0.55141562  0.75602184    -0.24700
H961        H  0.35836560  0.50152078  0.77561879     0.20200
S962        S  0.31650786  0.47495456  0.87104891    -0.30400
H963        H  0.28620566  0.52468099  0.85107272     0.10500
C964        C  0.25681576  0.55403644  0.78933960     0.03700
C965        C  0.23719196  0.57640051  0.78365036    -0.12700
C966        C  0.24210239  0.60468917  0.79360191    -0.08400
C967        C  0.26680956  0.61007814  0.81084810     0.07200
C968        C  0.28651201  0.58770625  0.81631190    -0.13500
S969        S  0.25000187  0.51811996  0.77571338    -0.30400
H970        H  0.21832847  0.57197427  0.77059738     0.11400
S971        S  0.27409928  0.64460863  0.82721789    -0.27500
H972        H  0.30564523  0.59203695  0.82904900     0.08700
H973        H  0.34487907  0.46417979  0.87161676     0.27100
H974        H  0.22332541  0.52424432  0.76255205     0.21900
H975        H  0.24503597  0.65063716  0.83364419     0.27200
H976        H  0.31950647  0.57797631  0.76730980     0.16000
C977        C  0.83585557  0.24982997  0.11747683    -0.11200
C978        C  0.81763295  0.22589982  0.11440362     0.15300
C979        C  0.82371915  0.20508479  0.09296493     0.02200
C980        C  0.84865662  0.20796126  0.07612129    -0.15600
C981        C  0.86750976  0.23139232  0.07989125    -0.10400
C982        C  0.86040948  0.25303229  0.10023760     0.08900
C983        C  0.79380920  0.22237069  0.13533706     0.10000
S984        S  0.80152356  0.17363912  0.08697742    -0.24700
H985        H  0.85385453  0.19131875  0.06052829     0.20200
S986        S  0.88165804  0.28528795  0.10517037    -0.30400
H987        H  0.83105722  0.26598594  0.13370196     0.10500
C988        C  0.79812383  0.20746764  0.16145052     0.03700
C989        C  0.77529123  0.20501718  0.18112673    -0.12700
C990        C  0.74801723  0.21710460  0.17528732    -0.08400
C991        C  0.74407448  0.23268121  0.14922325     0.07200
C992        C  0.76694971  0.23504921  0.12958689    -0.13500
S993        S  0.83269215  0.19126584  0.16953396    -0.30400
H994        H  0.77851317  0.19288014  0.20083738     0.11400
S995        S  0.71088091  0.25079475  0.14001615    -0.27500
H996        H  0.76386897  0.24698140  0.10969747     0.08700
H997        H  0.89125340  0.28704649  0.07643952     0.27100
H998        H  0.82552064  0.18091010  0.19715070     0.21900
H999        H  0.70516316  0.26019014  0.16830989     0.27200
H1000       H  0.77567934  0.18498287  0.09795967     0.16000
C1001       C  0.00598677  0.20596014  0.11596810    -0.11200
C1002       C  0.02551344  0.22903971  0.11540535     0.15300
C1003       C  0.02010467  0.25280061  0.09702887     0.02200
C1004       C  0.99478161  0.25332545  0.08041129    -0.15600
C1005       C  0.97494086  0.23043490  0.08144305    -0.10400
C1006       C  0.98105692  0.20620137  0.09899379     0.08900
C1007       C  0.05078272  0.22751653  0.13489957     0.10000
S1008       S  0.04410754  0.28333997  0.09433809    -0.24700
H1009       H  0.99031750  0.27187592  0.06684822     0.20200
S1010       S  0.95815892  0.17472463  0.10042334    -0.30400
H1011       H  0.01026410  0.18754192  0.12978397     0.10500
C1012       C  0.05002914  0.23974896  0.16268454     0.03700
C1013       C  0.07291031  0.23458497  0.18190354    -0.12700
C1014       C  0.09662308  0.21732643  0.17395264    -0.08400
C1015       C  0.09739153  0.20553963  0.14569685     0.07200
C1016       C  0.07464170  0.21096034  0.12655119    -0.13500
S1017       S  0.01937679  0.26103457  0.17396958    -0.30400
H1018       H  0.07212480  0.24368771  0.20339698     0.11400
S1019       S  0.12542033  0.18156152  0.13326622    -0.27500
H1020       H  0.07495181  0.20120785  0.10529715     0.08700
H1021       H  0.94885930  0.17630061  0.07157364     0.27100
H1022       H  0.03014251  0.26852069  0.20134417     0.21900
H1023       H  0.12546066  0.16457885  0.15846221     0.27200
H1024       H  0.06940239  0.26904328  0.10302225     0.16000
C1025       C  0.81976268  0.65048432  0.90121668    -0.11200
C1026       C  0.81764778  0.63109631  0.87804603     0.15300
C1027       C  0.83833582  0.60879518  0.87547533     0.02200
C1028       C  0.86054548  0.60651188  0.89595359    -0.15600
C1029       C  0.86329859  0.62655821  0.91858172    -0.10400
C1030       C  0.84247327  0.64877458  0.92114027     0.08900
C1031       C  0.79515787  0.63644877  0.85576626     0.10000
S1032       S  0.83840894  0.58335432  0.84599494    -0.24700
H1033       H  0.87659412  0.58964982  0.89351854     0.20200
S1034       S  0.84476030  0.67687039  0.94797469    -0.30400
H1035       H  0.80423508  0.66790590  0.90305739     0.10500
C1036       C  0.77046957  0.61887943  0.85283807     0.03700
C1037       C  0.74957619  0.62570537  0.83178887    -0.12700
C1038       C  0.75284927  0.64986326  0.81365764    -0.08400
C1039       C  0.77829723  0.66667763  0.81603914     0.07200
C1040       C  0.79876433  0.66007142  0.83723228    -0.13500
S1041       S  0.76494796  0.58863690  0.87677909    -0.30400
H1042       H  0.73013281  0.61285428  0.83018701     0.11400
S1043       S  0.78651989  0.69637532  0.79218807    -0.27500
H1044       H  0.81796710  0.67330272  0.83909040     0.08700
H1045       H  0.87487988  0.68019040  0.94621204     0.27100
H1046       H  0.74029378  0.57767811  0.86286120     0.21900
H1047       H  0.77434748  0.68351196  0.76751768     0.27200
H1048       H  0.82652598  0.60199013  0.82520292     0.16000
C1049       C  0.99867461  0.65996116  0.88699771    -0.11200
C1050       C  0.01949794  0.63802101  0.88872661     0.15300
C1051       C  0.01588645  0.61563392  0.90916102     0.02200
C1052       C  0.99114992  0.61520852  0.92662032    -0.15600
C1053       C  0.96970285  0.63649436  0.92395508    -0.10400
C1054       C  0.97405590  0.65959436  0.90446968     0.08900
C1055       C  0.04471922  0.63952893  0.86903571     0.10000
S1056       S  0.04150395  0.58659375  0.91346306    -0.24700
H1057       H  0.98799376  0.59743642  0.94151518     0.20200
S1058       S  0.94908997  0.68932494  0.90099358    -0.30400
H1059       H  0.00164985  0.67753591  0.87182864     0.10500
C1060       C  0.04187175  0.63375127  0.83927354     0.03700
C1061       C  0.06568628  0.63762653  0.82090910    -0.12700
C1062       C  0.09220185  0.64751996  0.83166399    -0.08400
C1063       C  0.09527562  0.65222503  0.86165055     0.07200
C1064       C  0.07154153  0.64827359  0.87996306    -0.13500
S1065       S  0.00771076  0.62197595  0.82464024    -0.30400
H1066       H  0.06333122  0.63420713  0.79791659     0.11400
S1067       S  0.12883870  0.66347317  0.87780900    -0.27500
H1068       H  0.07383997  0.65252664  0.90284165     0.08700
H1069       H  0.93875547  0.68815725  0.92949565     0.27100
H1070       H  0.01669496  0.61993778  0.79572969     0.21900
H1071       H  0.14692218  0.65111236  0.85681696     0.27200
H1072       H  0.05169600  0.58656126  0.88491972     0.16000
C1073       C  0.06797887  0.80217595  0.30920393    -0.11200
C1074       C  0.04558612  0.80672045  0.28931437     0.15300
C1075       C  0.04218148  0.78733720  0.26608821     0.02200
C1076       C  0.06206031  0.76497962  0.26233519    -0.15600
C1077       C  0.08529174  0.76099916  0.28147828    -0.10400
C1078       C  0.08789301  0.77968461  0.30552884     0.08900
C1079       C  0.02853665  0.83373406  0.29109702     0.10000
S1080       S  0.01324488  0.79030319  0.24015910    -0.24700
H1081       H  0.05941975  0.75062238  0.24406048     0.20200
S1082       S  0.11725040  0.77765293  0.33095223    -0.30400
H1083       H  0.07087719  0.81721911  0.32687732     0.10500
C1084       C  0.00969292  0.83952770  0.31425610     0.03700
C1085       C  0.99437455  0.86571250  0.31478319    -0.12700
C1086       C  0.99736069  0.88602555  0.29245784    -0.08400
C1087       C  0.01570277  0.87971684  0.26892536     0.07200
C1088       C  0.03146726  0.85403136  0.26883486    -0.15100
S1089       S  0.00457794  0.81331700  0.34265381    -0.30400
H1090       H  0.98015908  0.87053291  0.33267653     0.11400
S1091       S  0.01921559  0.90297334  0.23785468    -0.27500
H1092       H  0.04581223  0.84952637  0.25092503     0.08700
H1093       H  0.13866412  0.77456749  0.30966007     0.27100
H1094       H  0.98412447  0.82920943  0.35848533     0.21900
H1095       H  0.99053439  0.91293675  0.23817212     0.27200
H1096       H  0.99334238  0.80330349  0.25901535     0.16000
C1097       C  0.08342712  0.06363411  0.30300728    -0.11200
C1098       C  0.05647368  0.06637070  0.28944842     0.15300
C1099       C  0.04988977  0.09209752  0.27451355     0.02200
C1100       C  0.07073625  0.11386297  0.27234075    -0.15600
C1101       C  0.09822933  0.11084327  0.28491933    -0.10400
C1102       C  0.10419714  0.08561794  0.30121105     0.08900
C1103       C  0.03650735  0.04132616  0.28956930     0.10000
S1104       S  0.01592107  0.09783593  0.25633716    -0.24700
H1105       H  0.06571084  0.13293360  0.25973240     0.20200
S1106       S  0.13757789  0.08022987  0.32049857    -0.30400
H1107       H  0.08844198  0.04403430  0.31478807     0.10500
C1108       C  0.03635668  0.02130417  0.26668559     0.03700
C1109       C  0.01770880  0.99745566  0.26779026    -0.12700
C1110       C  0.99901852  0.99324502  0.29126848    -0.08400
C1111       C  0.99890978  0.01353191  0.31401731     0.07200
C1112       C  0.01777383  0.03730331  0.31299912    -0.13500
S1113       S  0.06044484  0.02581697  0.23638858    -0.30400
H1114       H  0.01788801  0.98172697  0.25050888     0.11400
S1115       S  0.97598464  0.00836801  0.34508802    -0.27500
H1116       H  0.01817794  0.05272824  0.33054015     0.08700
H1117       H  0.14093100  0.10942379  0.32822272     0.27100
H1118       H  0.05227519  0.00062799  0.22153534     0.21900
H1119       H  0.98274278  0.03456318  0.35887735     0.27200
H1120       H  0.99910048  0.08064111  0.27476673     0.16000
C1121       C  0.75964496  0.81658557  0.72207758    -0.11200
C1122       C  0.78091553  0.81262658  0.70097620     0.15300
C1123       C  0.78115477  0.78683714  0.68462243     0.02200
C1124       C  0.76025427  0.76556928  0.69010521    -0.15600
C1125       C  0.73947497  0.76924678  0.71185413    -0.10400
C1126       C  0.73890089  0.79542379  0.72755282     0.08900
C1127       C  0.80251067  0.83591260  0.69754075     0.10000
S1128       S  0.80764185  0.77909017  0.65709515    -0.24700
H1129       H  0.76091224  0.74551797  0.67806954     0.20200
S1130       S  0.71201986  0.80343219  0.75457579    -0.30400
H1131       H  0.75921957  0.83645944  0.73443456     0.10500
C1132       C  0.79839415  0.85859098  0.67770578     0.03700
C1133       C  0.81691223  0.88259392  0.67842122    -0.12700
C1134       C  0.83934664  0.88450418  0.69879850    -0.08400
C1135       C  0.84378377  0.86122517  0.71815962     0.07200
C1136       C  0.82556193  0.83715928  0.71706443    -0.13500
S1137       S  0.76887052  0.85738664  0.65229246    -0.30400
H1138       H  0.81351715  0.90031897  0.66355282     0.11400
S1139       S  0.87074427  0.86169002  0.74625119    -0.27500
H1140       H  0.82844507  0.81986403  0.73257554     0.08700
H1141       H  0.68949217  0.78830935  0.74095530     0.27100
H1142       H  0.77482514  0.88386072  0.63864596     0.21900
H1143       H  0.86728571  0.89107905  0.75307894     0.27200
H1144       H  0.82582799  0.80293123  0.66116795     0.16000
C1145       C  0.82811523  0.04015284  0.69785037    -0.11200
C1146       C  0.80660492  0.04154738  0.71908920     0.15300
C1147       C  0.80288453  0.01790689  0.73798066     0.02200
C1148       C  0.81987455  0.99309859  0.73455004    -0.15600
C1149       C  0.84091684  0.99127514  0.71279986    -0.10400
C1150       C  0.84507701  0.01528317  0.69431824     0.08900
C1151       C  0.78663752  0.06666146  0.71935414     0.10000
S1152       S  0.77635376  0.01781949  0.76643772    -0.24700
H1153       H  0.81655741  0.97493482  0.74892992     0.20200
S1154       S  0.87027806  0.01494980  0.66468650    -0.30400
H1155       H  0.83087721  0.05813882  0.68313486     0.10500
C1156       C  0.79413469  0.09302484  0.73249017     0.03700
C1157       C  0.77386886  0.11564092  0.73333508    -0.12700
C1158       C  0.74616826  0.11258359  0.72111780    -0.08400
C1159       C  0.73942074  0.08648941  0.70665551     0.07200
C1160       C  0.75947924  0.06381376  0.70632687    -0.13500
S1161       S  0.82895713  0.09728675  0.74947240    -0.30400
H1162       H  0.77926211  0.13539368  0.74459125     0.11400
S1163       S  0.70603608  0.08093210  0.68747861    -0.27500
H1164       H  0.75393376  0.04373852  0.69567024     0.08700
H1165       H  0.86622420  0.98571197  0.65757057     0.27100
H1166       H  0.82564502  0.12652142  0.75704257     0.21900
H1167       H  0.70390414  0.10958568  0.67755550     0.27200
H1168       H  0.77673486  0.04773748  0.77149720     0.16000
C1169       C  0.22926072  0.09615001  0.87390121    -0.11200
C1170       C  0.21522325  0.06930854  0.87303443     0.15300
C1171       C  0.19859747  0.06213861  0.84854448     0.02200
C1172       C  0.19540726  0.08224761  0.82614253    -0.15600
C1173       C  0.20858302  0.10959799  0.82731078    -0.10400
C1174       C  0.22642564  0.11615845  0.85127110     0.08900
C1175       C  0.21657570  0.05012476  0.89875256     0.10000
S1176       S  0.17987062  0.02817010  0.84514862    -0.24700
H1177       H  0.18164735  0.07677501  0.80803849     0.20200
S1178       S  0.24649675  0.14936750  0.85411692    -0.30400
H1179       H  0.24231593  0.10165658  0.89251030     0.10500
C1180       C  0.24006407  0.03138071  0.90370026     0.03700
C1181       C  0.24027491  0.01369603  0.92842585    -0.12700
C1182       C  0.21753243  0.01452788  0.94847400    -0.08400
C1183       C  0.19372278  0.03292384  0.94301951     0.07200
C1184       C  0.19361457  0.05055949  0.91842846    -0.13500
S1185       S  0.26969144  0.03003308  0.87847113    -0.30400
H1186       H  0.25856281  0.99974287  0.93263099     0.11400
S1187       S  0.16268223  0.03471997  0.96642335    -0.27500
H1188       H  0.17538708  0.06471326  0.91450324     0.08700
H1189       H  0.25228521  0.15159130  0.82439722     0.27100
H1190       H  0.28565392  0.00857197  0.89289431     0.21900
H1191       H  0.16438699  0.00599290  0.97613683     0.27200
H1192       H  0.19959578  0.01171859  0.86130829     0.16000
C1193       C  0.23269153  0.09349859  0.13236275    -0.11200
C1194       C  0.21634761  0.06800495  0.13209192     0.15300
C1195       C  0.19732857  0.06234328  0.15522470     0.02200
C1196       C  0.19387259  0.08296314  0.17709879    -0.15600
C1197       C  0.20911185  0.10920754  0.17663606    -0.10400
C1198       C  0.22948212  0.11397809  0.15441298     0.08900
C1199       C  0.21783614  0.04916405  0.10620760     0.10000
S1200       S  0.17587069  0.02990688  0.15738586    -0.24700
H1201       H  0.17828670  0.07893339  0.19405348     0.20200
S1202       S  0.25213242  0.14559311  0.15302947    -0.30400
H1203       H  0.24760709  0.09777656  0.11487436     0.10500
C1204       C  0.19590880  0.04983832  0.08512958     0.03700
C1205       C  0.19850269  0.03267437  0.06033990    -0.12700
C1206       C  0.22285764  0.01514318  0.05573383    -0.08400
C1207       C  0.24501575  0.01480906  0.07677293     0.07200
C1208       C  0.24211432  0.03155700  0.10185379    -0.13500
S1209       S  0.16504354  0.07334504  0.08932003    -0.30400
H1210       H  0.18155624  0.03304465  0.04424039     0.11400
S1211       S  0.27808405  0.99476440  0.07230567    -0.27500
H1212       H  0.25921159  0.03139698  0.11781734     0.08700
H1213       H  0.25419904  0.14905284  0.18311554     0.27100
H1214       H  0.15212745  0.06723682  0.06253647     0.21900
H1215       H  0.27959618  0.99806232  0.04218123     0.27200
H1216       H  0.19453636  0.01225964  0.14126485     0.16000
C1217       C  0.65008156  0.81803147  0.91962996    -0.11200
C1218       C  0.62934184  0.81895414  0.89750416     0.15300
C1219       C  0.60611752  0.83861518  0.89986511     0.02200
C1220       C  0.60391564  0.85639915  0.92425854    -0.15600
C1221       C  0.62462233  0.85545424  0.94638674    -0.10400
C1222       C  0.64823575  0.83625429  0.94371347     0.08900
C1223       C  0.63258868  0.79906948  0.87243529     0.10000
S1224       S  0.57859447  0.84205636  0.87256275    -0.24700
H1225       H  0.58566639  0.87092852  0.92615903     0.20200
S1226       S  0.67695235  0.83427484  0.96995837    -0.30400
H1227       H  0.66804020  0.80311196  0.91796934     0.10500
C1228       C  0.65603552  0.80167843  0.85326710     0.03700
C1229       C  0.65928068  0.78165848  0.83080459    -0.12700
C1230       C  0.63965228  0.75879679  0.82678520    -0.08400
C1231       C  0.61583300  0.75653835  0.84579024     0.07200
C1232       C  0.61248449  0.77675039  0.86817627    -0.13500
S1233       S  0.68162763  0.83089681  0.85698229    -0.30400
H1234       H  0.67737316  0.78383346  0.81620140     0.11400
S1235       S  0.58996006  0.72760139  0.84380761    -0.27500
H1236       H  0.59450390  0.77457301  0.88295374     0.08700
H1237       H  0.67516016  0.86326015  0.97882255     0.27100
H1238       H  0.69919527  0.82349485  0.83337057     0.21900
H1239       H  0.61070142  0.70595974  0.83886667     0.27200
H1240       H  0.59655941  0.83549114  0.84902936     0.16000
C1241       C  0.62556995  0.85122601  0.10138182    -0.11200
C1242       C  0.60891747  0.82601522  0.10288273     0.15300
C1243       C  0.59000305  0.81929770  0.07995387     0.02200
C1244       C  0.59003527  0.83644580  0.05508381    -0.15600
C1245       C  0.60821704  0.86059848  0.05261006    -0.10400
C1246       C  0.62569149  0.86840567  0.07648188     0.08900
C1247       C  0.61469298  0.80526862  0.12657598     0.10000
S1248       S  0.56630900  0.78840125  0.08063336    -0.24700
H1249       H  0.57617394  0.83052613  0.03719680     0.20200
S1250       S  0.65047111  0.89841865  0.07583181    -0.30400
H1251       H  0.64006849  0.85647639  0.11897587     0.10500
C1252       C  0.62991347  0.77945603  0.12127641     0.03700
C1253       C  0.63517079  0.76025181  0.14403618    -0.12700
C1254       C  0.62600576  0.76633011  0.17232881    -0.08400
C1255       C  0.61071277  0.79236858  0.17752310     0.07200
C1256       C  0.60556018  0.81162714  0.15469531    -0.13500
S1257       S  0.64395234  0.77156789  0.08573646    -0.30400
H1258       H  0.64732535  0.74072527  0.13986338     0.11400
S1259       S  0.59634730  0.80196885  0.21234659    -0.27500
H1260       H  0.59390960  0.83151277  0.15876120     0.08700
H1261       H  0.65952459  0.89400458  0.04721508     0.27100
H1262       H  0.65649027  0.74473397  0.09252510     0.21900
H1263       H  0.58691348  0.77385036  0.21895280     0.27200
H1264       H  0.56390181  0.78672174  0.11082226     0.16000
C1265       C  0.82273863  0.21659923  0.90878991    -0.11200
C1266       C  0.82239788  0.23489154  0.88467953     0.15300
C1267       C  0.84613616  0.25333372  0.87965102     0.02200
C1268       C  0.87011858  0.25212188  0.89802024    -0.15600
C1269       C  0.87102809  0.23300097  0.92157341    -0.10400
C1270       C  0.84684822  0.21511624  0.92699363     0.08900
C1271       C  0.79863262  0.23166516  0.86348275     0.10000
S1272       S  0.84760015  0.27806524  0.84959187    -0.24700
H1273       H  0.88843929  0.26600179  0.89369373     0.20200
S1274       S  0.84616325  0.18835474  0.95528087    -0.30400
H1275       H  0.80471376  0.20216170  0.91250435     0.10500
C1276       C  0.80281368  0.21608281  0.83773389     0.03700
C1277       C  0.77975751  0.21266747  0.81846526    -0.12700
C1278       C  0.75228043  0.22415632  0.82440264    -0.08400
C1279       C  0.74831129  0.24020994  0.85012012     0.07200
C1280       C  0.77139686  0.24345883  0.86949003    -0.13500
S1281       S  0.83722282  0.19937432  0.82998927    -0.30400
H1282       H  0.78293981  0.20008860  0.79904378     0.11400
S1283       S  0.71481310  0.25785334  0.85906491    -0.27500
H1284       H  0.76823141  0.25555550  0.88924635     0.08700
H1285       H  0.87530783  0.18032538  0.95250473     0.27100
H1286       H  0.82923049  0.18642513  0.80372565     0.21900
H1287       H  0.70806685  0.26557115  0.83047231     0.27200
H1288       H  0.81763512  0.28168349  0.84659095     0.16000
C1289       C  0.07759807  0.20486943  0.87644547    -0.11200
C1290       C  0.05012771  0.21399593  0.86779617     0.15300
C1291       C  0.04541419  0.22166190  0.83868441     0.02200
C1292       C  0.06785105  0.21886948  0.81868587    -0.15600
C1293       C  0.09530862  0.20881693  0.82692659    -0.10400
C1294       C  0.10003638  0.20172211  0.85642939     0.08900
C1295       C  0.02627701  0.21365987  0.88905318     0.10000
S1296       S  0.01104459  0.23450906  0.82552260    -0.24700
H1297       H  0.06368830  0.22453367  0.79638108     0.20200
S1298       S  0.13319091  0.18637645  0.86987790    -0.30400
H1299       H  0.08118945  0.19881393  0.89875831     0.10500
C1300       C  0.00433176  0.19264298  0.88769218     0.03700
C1301       C  0.98003474  0.19532184  0.90551618    -0.12700
C1302       C  0.97736101  0.21845139  0.92491679    -0.08400
C1303       C  0.00024007  0.23856016  0.92736816     0.07200
C1304       C  0.02455186  0.23574123  0.90964337    -0.13500
S1305       S  0.00720272  0.16259229  0.86301100    -0.30400
H1306       H  0.96272623  0.17969851  0.90399682     0.11400
S1307       S  0.99902514  0.26927665  0.95125939    -0.27500
H1308       H  0.04156493  0.25174490  0.91084072     0.08700
H1309       H  0.13462199  0.16502953  0.84830533     0.27100
H1310       H  0.98069129  0.14960776  0.87004550     0.21900
H1311       H  0.96948928  0.27505967  0.94732158     0.27200
H1312       H  0.00197780  0.24739278  0.85142631     0.16000
C1313       C  0.82603611  0.66909541  0.10780745    -0.11200
C1314       C  0.80787905  0.64545512  0.11319330     0.15300
C1315       C  0.81355680  0.61889751  0.09925488     0.02200
C1316       C  0.83795825  0.61620927  0.08152066    -0.15600
C1317       C  0.85658336  0.63964062  0.07687285    -0.10400
C1318       C  0.85013230  0.66653860  0.08973450     0.08900
C1319       C  0.78391032  0.64918012  0.13419044     0.10000
S1320       S  0.79102030  0.58750269  0.10386589    -0.24700
H1321       H  0.84286142  0.59548778  0.07181971     0.20200
S1322       S  0.87232602  0.69812865  0.08464439    -0.30400
H1323       H  0.82166264  0.68960226  0.11819770     0.10500
C1324       C  0.78585869  0.63866067  0.16268875     0.03700
C1325       C  0.76354661  0.64455563  0.18241178    -0.12700
C1326       C  0.73920965  0.66089769  0.17435978    -0.08400
C1327       C  0.73745677  0.67135385  0.14559338     0.07200
C1328       C  0.75960043  0.66517982  0.12594677    -0.13500
S1329       S  0.81727557  0.61862084  0.17423313    -0.30400
H1330       H  0.76517716  0.63659794  0.20431781     0.11400
S1331       S  0.70869739  0.69435101  0.13287977    -0.27500
H1332       H  0.75828121  0.67364306  0.10417560     0.08700
H1333       H  0.88251932  0.69068078  0.05707736     0.27100
H1334       H  0.80798343  0.61334351  0.20263561     0.21900
H1335       H  0.70863989  0.71211496  0.15750961     0.27200
H1336       H  0.76526224  0.60259472  0.10926132     0.16000
C1337       C  0.00908742  0.60982796  0.09966635    -0.11200
C1338       C  0.01202001  0.63285053  0.11915582     0.15300
C1339       C  0.99013456  0.65402030  0.12046245     0.02200
C1340       C  0.96630281  0.65210287  0.10204445    -0.15600
C1341       C  0.96296878  0.62894694  0.08269160    -0.10400
C1342       C  0.98467006  0.60736879  0.08180770     0.08900
C1343       C  0.03856952  0.63530926  0.13699459     0.10000
S1344       S  0.99128811  0.68403858  0.14525182    -0.24700
H1345       H  0.94997745  0.66885491  0.10300722     0.20200
S1346       S  0.98215951  0.57570818  0.05933695    -0.30400
H1347       H  0.02580626  0.59348486  0.09861534     0.10500
C1348       C  0.04312450  0.61805161  0.16169259     0.03700
C1349       C  0.06698159  0.62360469  0.17971100    -0.12700
C1350       C  0.08625464  0.64623043  0.17358441    -0.08400
C1351       C  0.08243031  0.66229246  0.14782749     0.07200
C1352       C  0.05859955  0.65686486  0.13010620    -0.13500
S1353       S  0.01747562  0.59033245  0.17127876    -0.30400
H1354       H  0.06980015  0.61128649  0.19937371     0.11400
S1355       S  0.10721873  0.68998780  0.13620234    -0.27500
H1356       H  0.05535274  0.66989147  0.11093600     0.08700
H1357       H  0.95196445  0.57324164  0.06098941     0.27100
H1358       H  0.03104050  0.58165339  0.19702722     0.21900
H1359       H  0.13199969  0.67647676  0.14746804     0.27200
H1360       H  0.00568699  0.66929901  0.16754678     0.16000
C1361       C  0.04725645  0.78583639  0.74434436    -0.11200
C1362       C  0.05220473  0.80708929  0.72342326     0.15300
C1363       C  0.07662135  0.80466700  0.70526593     0.02200
C1364       C  0.09551718  0.78119321  0.70859107    -0.15600
C1365       C  0.09110609  0.76042687  0.73023869    -0.10400
C1366       C  0.06611763  0.76248375  0.74774946     0.08900
C1367       C  0.03192601  0.83185222  0.72184240     0.10000
S1368       S  0.08555934  0.83129890  0.67827694    -0.24700
H1369       H  0.11461995  0.77998643  0.69516775     0.20200
S1370       S  0.05663888  0.73577061  0.77448479    -0.30400
H1371       H  0.02841967  0.78743339  0.75811166     0.10500
C1372       C  0.01212682  0.83511564  0.69895154     0.03700
C1373       C  0.99440188  0.85975869  0.69789399    -0.12700
C1374       C  0.99589488  0.88101838  0.71946858    -0.08400
C1375       C  0.01450345  0.87669005  0.74328090     0.07200
C1376       C  0.03245305  0.85239315  0.74404789    -0.13500
S1377       S  0.00947579  0.80791110  0.67117955    -0.30400
H1378       H  0.97996949  0.86297250  0.67979101     0.11400
S1379       S  0.01622322  0.90126101  0.77342732    -0.27500
H1380       H  0.04713771  0.84953780  0.76204060     0.08700
H1381       H  0.06757049  0.71211462  0.75887707     0.27100
H1382       H  0.98827036  0.82191675  0.65453605     0.21900
H1383       H  0.98753625  0.91096869  0.77122832     0.27200
H1384       H  0.07316570  0.85509305  0.69242748     0.16000
C1385       C  0.02797321  0.02287259  0.73469471    -0.11200
C1386       C  0.03620880  0.03581110  0.70859893     0.15300
C1387       C  0.02534853  0.02466675  0.68236408     0.02200
C1388       C  0.00698960  0.00060602  0.68280721    -0.15600
C1389       C  0.99900140  0.98757225  0.70892343    -0.10400
C1390       C  0.00938219  0.99909578  0.73517069     0.08900
C1391       C  0.05699060  0.06013476  0.70965319     0.10000
S1392       S  0.03447454  0.03981374  0.64770296    -0.24700
H1393       H  0.99923427  0.99168309  0.66262825     0.20200
S1394       S  0.00033484  0.98402733  0.76993062    -0.30400
H1395       H  0.03630782  0.03127822  0.75487174     0.10500
C1396       C  0.04887848  0.08738996  0.72038755     0.03700
C1397       C  0.06969392  0.10922881  0.72299608    -0.12700
C1398       C  0.09868524  0.10450845  0.71516130    -0.08400
C1399       C  0.10633268  0.07740975  0.70307478     0.07200
C1400       C  0.08555069  0.05553708  0.70083647    -0.13500
S1401       S  0.01198893  0.09428387  0.73097939    -0.30400
H1402       H  0.06347994  0.12978943  0.73219166     0.11400
S1403       S  0.14189485  0.06934492  0.68955257    -0.27500
H1404       H  0.09170145  0.03466343  0.69222759     0.08700
H1405       H  0.97314251  0.97313780  0.76209383     0.27100
H1406       H  0.01581192  0.12334506  0.73892308     0.21900
H1407       H  0.14620882  0.09690480  0.67749016     0.27200
H1408       H  0.03867075  0.06826528  0.65737738     0.16000
C1409       C  0.78477116  0.78880920  0.29767962    -0.11200
C1410       C  0.77848060  0.81690192  0.28821982     0.15300
C1411       C  0.75100727  0.82277880  0.27644430     0.02200
C1412       C  0.73096108  0.80040539  0.27336044    -0.15600
C1413       C  0.73722861  0.77199663  0.28225670    -0.10400
C1414       C  0.76441771  0.76647894  0.29528843     0.08900
C1415       C  0.80092206  0.83968631  0.29042854     0.10000
S1416       S  0.74031556  0.85831141  0.26447660    -0.24700
H1417       H  0.71036955  0.80528103  0.26338450     0.20200
S1418       S  0.77435893  0.73185103  0.31005224    -0.30400
H1419       H  0.80567379  0.78430611  0.30718225     0.10500
C1420       C  0.80738974  0.85301340  0.31699105     0.03700
C1421       C  0.82647362  0.87655303  0.31763439    -0.12700
C1422       C  0.83924902  0.88709296  0.29226379    -0.08400
C1423       C  0.83327860  0.87325546  0.26575409     0.07200
C1424       C  0.81443823  0.84956900  0.26518518    -0.13500
S1425       S  0.79006747  0.84110686  0.34979849    -0.30400
H1426       H  0.83090934  0.88739419  0.33785295     0.11400
S1427       S  0.84804348  0.88533922  0.23183105    -0.27500
H1428       H  0.80940630  0.83940359  0.24473498     0.08700
H1429       H  0.74705487  0.72644787  0.32219095     0.27100
H1430       H  0.80292658  0.86149643  0.36825030     0.21900
H1431       H  0.84956412  0.91481760  0.23882172     0.27200
H1432       H  0.75662089  0.87378566  0.28483869     0.16000
C1433       C  0.80337896  0.02448525  0.32100870    -0.11200
C1434       C  0.80352190  0.04144334  0.29592987     0.15300
C1435       C  0.82334142  0.03512917  0.27367379     0.02200
C1436       C  0.84160133  0.01123957  0.27641282    -0.15600
C1437       C  0.84063046  0.99352997  0.30094310    -0.10400
C1438       C  0.82183796  0.00069760  0.32382157     0.08900
C1439       C  0.78095493  0.06369604  0.29234914     0.10000
S1440       S  0.82504535  0.05541503  0.24045547    -0.24700
H1441       H  0.85586343  0.00569022  0.25872760     0.20200
S1442       S  0.81994671  0.97992926  0.35669689    -0.30400
H1443       H  0.78822323  0.02935173  0.33813402     0.10500
C1444       C  0.75513085  0.05737541  0.27770987     0.03700
C1445       C  0.73477235  0.07930903  0.27330852    -0.12700
C1446       C  0.73956410  0.10761987  0.28330232    -0.08400
C1447       C  0.76508017  0.11342398  0.29923206     0.07200
C1448       C  0.78550693  0.09147221  0.30336430    -0.13500
S1449       S  0.74839785  0.02143639  0.26408355    -0.30400
H1450       H  0.71542482  0.07451444  0.26113073     0.11400
S1451       S  0.77275829  0.14794934  0.31542293    -0.27500
H1452       H  0.80520898  0.09608784  0.31509812     0.08700
H1453       H  0.84855697  0.96981666  0.35584623     0.27100
H1454       H  0.72021122  0.02661326  0.25403547     0.21900
H1455       H  0.74417673  0.15282791  0.32444772     0.27200
H1456       H  0.81509659  0.08175974  0.25167663     0.16000
C1457       C  0.64395438  0.09006416  0.87330654    -0.11200
C1458       C  0.62172624  0.07055004  0.86703430     0.15300
C1459       C  0.60737774  0.07245271  0.84020136     0.02200
C1460       C  0.61543207  0.09400688  0.82044015    -0.15600
C1461       C  0.63773170  0.11363568  0.82674505    -0.10400
C1462       C  0.65242067  0.11113208  0.85343058     0.08900
C1463       C  0.61451448  0.04864320  0.88923388     0.10000
S1464       S  0.57869117  0.04822377  0.82993530    -0.24700
H1465       H  0.60414179  0.09551504  0.80000677     0.20200
S1466       S  0.68320420  0.13298658  0.86290921    -0.30400
H1467       H  0.65525585  0.08843570  0.89373568     0.10500
C1468       C  0.63268756  0.02471446  0.89412411     0.03700
C1469       C  0.62810221  0.00711886  0.91836329    -0.12700
C1470       C  0.60562913  0.01294669  0.93784655    -0.08400
C1471       C  0.58603855  0.03555032  0.93151231     0.07200
C1472       C  0.59089226  0.05334808  0.90751905    -0.13500
S1473       S  0.66239180  0.01730227  0.87002228    -0.30400
H1474       H  0.64302829  0.98973149  0.92305222     0.11400
S1475       S  0.55472365  0.04295979  0.95336921    -0.27500
H1476       H  0.57662617  0.07147059  0.90350994     0.08700
H1477       H  0.69548263  0.13246820  0.83514960     0.27100
H1478       H  0.67132476  0.99143601  0.88323386     0.21900
H1479       H  0.55153624  0.01466000  0.96393479     0.27200
H1480       H  0.58752023  0.02468391  0.84693015     0.16000
C1481       C  0.59891226  0.05545095  0.07787841    -0.11200
C1482       C  0.62443783  0.05311397  0.09398066     0.15300
C1483       C  0.64524627  0.03229383  0.08590576     0.02200
C1484       C  0.64046376  0.01501668  0.06151044    -0.15600
C1485       C  0.61515377  0.01771383  0.04501340    -0.10400
C1486       C  0.59391255  0.03788751  0.05376628     0.08900
C1487       C  0.62918663  0.07365728  0.11814120     0.10000
S1488       S  0.67868196  0.02727871  0.10523865    -0.24700
H1489       H  0.65687368  0.99964091  0.05504523     0.20200
S1490       S  0.55983149  0.04209866  0.03540041    -0.30400
H1491       H  0.58279589  0.07124431  0.08408239     0.10500
C1492       C  0.64642421  0.09843823  0.11459571     0.03700
C1493       C  0.64993874  0.11768596  0.13774189    -0.12700
C1494       C  0.63660605  0.11280071  0.16460016    -0.08400
C1495       C  0.61893697  0.08804189  0.16786521     0.07200
C1496       C  0.61554267  0.06878356  0.14471302    -0.13500
S1497       S  0.66380210  0.10564490  0.08045703    -0.30400
H1498       H  0.66359768  0.13644806  0.13503498     0.11400
S1499       S  0.59921120  0.08032379  0.20045873    -0.27500
H1500       H  0.60193082  0.04994233  0.14732363     0.08700
H1501       H  0.55753992  0.01321986  0.02632233     0.27100
H1502       H  0.67746263  0.13147689  0.08869836     0.21900
H1503       H  0.59218269  0.10932052  0.20621220     0.27200
H1504       H  0.66869289  0.03675668  0.13223181     0.16000
C1505       C  0.25168800  0.81781840  0.91805007    -0.11200
C1506       C  0.22872797  0.82255753  0.89883685     0.15300
C1507       C  0.21028237  0.84644599  0.90336130     0.02200
C1508       C  0.21399642  0.86378491  0.92780145    -0.15600
C1509       C  0.23598601  0.85814440  0.94789400    -0.10400
C1510       C  0.25571462  0.83551497  0.94227279     0.08900
C1511       C  0.22205240  0.80017173  0.87687451     0.10000
S1512       S  0.18078196  0.85512634  0.87945285    -0.24700
H1513       H  0.19876526  0.88109621  0.93183719     0.20200
S1514       S  0.28604177  0.82780433  0.96542597    -0.30400
H1515       H  0.26598811  0.79959915  0.91468392     0.10500
C1516       C  0.24005544  0.79470491  0.85296491     0.03700
C1517       C  0.23233008  0.77311132  0.83299017    -0.12700
C1518       C  0.20696275  0.75677991  0.83651775    -0.08400
C1519       C  0.18964977  0.76177922  0.86126897     0.07200
C1520       C  0.19716836  0.78351181  0.88074154    -0.13500
S1521       S  0.27209791  0.81608691  0.84722836    -0.30400
H1522       H  0.24564861  0.76950069  0.81415504     0.11400
S1523       S  0.15830982  0.74050921  0.87021223    -0.27500
H1524       H  0.18368075  0.78719808  0.89948999     0.08700
H1525       H  0.28909215  0.85608364  0.97604666     0.27100
H1526       H  0.28182105  0.80130404  0.82257087     0.21900
H1527       H  0.17079628  0.71414497  0.86170316     0.27200
H1528       H  0.19337933  0.84342631  0.85446117     0.16000
C1529       C  0.19179921  0.81686053  0.07840923    -0.11200
C1530       C  0.20996641  0.81912814  0.10255004     0.15300
C1531       C  0.23216636  0.84007835  0.10233333     0.02200
C1532       C  0.23606812  0.85765729  0.07789339    -0.15600
C1533       C  0.21799318  0.85519690  0.05364758    -0.10400
C1534       C  0.19521871  0.83484067  0.05433049     0.08900
C1535       C  0.20512544  0.79910074  0.12729936     0.10000
S1536       S  0.25621597  0.84537915  0.13246515    -0.24700
H1537       H  0.25357913  0.87315794  0.07764158     0.20200
S1538       S  0.16943150  0.83101059  0.02539419    -0.30400
H1539       H  0.17457904  0.80102635  0.07844747     0.10500
C1540       C  0.17989410  0.80082100  0.14417384     0.03700
C1541       C  0.17498472  0.78030316  0.16594048    -0.12700
C1542       C  0.19466347  0.75774373  0.17144175    -0.08400
C1543       C  0.22012554  0.75626141  0.15456132     0.07200
C1544       C  0.22517695  0.77705119  0.13301156    -0.13500
S1545       S  0.15407475  0.82952208  0.13833140    -0.30400
H1546       H  0.15557756  0.78188893  0.17882898     0.11400
S1547       S  0.24608009  0.72749122  0.15801790    -0.27500
H1548       H  0.24443906  0.77543533  0.11986476     0.08700
H1549       H  0.17013165  0.86009961  0.01667739     0.27100
H1550       H  0.13427981  0.82109380  0.15972782     0.21900
H1551       H  0.22518003  0.70555413  0.16010273     0.27200
H1552       H  0.23644023  0.83726183  0.15397435     0.16000
loop_ 
_geom_bond_atom_site_label_1 
_geom_bond_atom_site_label_2 
_geom_bond_distance 
_geom_bond_site_symmetry_2 
_ccdc_geom_bond_type 
C1            C2   1.409       .  A
C1            C6   1.400       .  A
C1         C1533   1.491       .  S
C2            C3   1.422       .  A
C2            H7   1.079       .  S
C3            C4   1.417   1_554  A
C3           C68   1.519       .  S
C4            C5   1.404       .  A
C4            H8   1.079       .  S
C5            C6   1.399   1_556  A
C5         C1509   1.486       .  S
C6            H9   1.084       .  S
C10          C11   1.400   1_554  A
C10          C15   1.405   1_545  A
C10        C1485   1.489       .  S
C11          C12   1.401   1_545  A
C11          H16   1.084       .  S
C12          C13   1.406       .  A
C12        C1470   1.487   1_565  S
C13          C14   1.416       .  A
C13          H17   1.080       .  S
C14          C15   1.417   1_556  A
C14          C57   1.511       .  S
C15          H18   1.080       .  S
C19          C20   1.402       .  A
C19          C24   1.395       .  A
C19        C1437   1.476       .  S
C20          C21   1.416       .  A
C20          H25   1.077       .  S
C21          C22   1.424       .  A
C21          C86   1.519       .  S
C22          C23   1.406       .  A
C22          H26   1.078       .  S
C23          C24   1.395       .  A
C23        C1422   1.482       .  S
C24          H27   1.085       .  S
C28          C29   1.395       .  A
C28          C33   1.403       .  A
C28        C1389   1.477       .  S
C29          C30   1.398       .  A
C29          H34   1.084   1_655  S
C30          C31   1.406       .  A
C30        C1374   1.484       .  S
C31          C32   1.419       .  A
C31          H35   1.080       .  S
C32          C33   1.416       .  A
C32          C75   1.511       .  S
C33          H36   1.080       .  S
C37          C38   1.400       .  A
C37          C42   1.409       .  A
C37        C1341   1.494       .  S
C38          C39   1.395       .  A
C38          H43   1.084       .  S
C39          C40   1.405       .  A
C39        C1317   1.482       .  S
C40          C41   1.420       .  A
C40          H44   1.079       .  S
C41          C42   1.422       .  A
C41          C95   1.520   1_554  S
C42          H45   1.078       .  S
C46          C47   1.406       .  A
C46          C51   1.399       .  A
C46        C1269   1.487       .  S
C47          C48   1.418       .  A
C47          H52   1.079       .  S
C48          C49   1.417       .  A
C48         C102   1.513   1_556  S
C49          C50   1.402       .  A
C49          H53   1.078       .  S
C50          C51   1.398       .  A
C50        C1302   1.483       .  S
C51          H54   1.084       .  S
C55          C56   1.407       .  A
C55          C60   1.399       .  A
C55        C1221   1.487       .  S
C56          C57   1.417       .  A
C56          H61   1.080       .  S
C57          C58   1.415   1_556  A
C58          C59   1.405       .  A
C58          H62   1.080       .  S
C59          C60   1.401   1_554  A
C59        C1245   1.488       .  S
C60          H63   1.084   1_556  S
C64          C65   1.400   1_565  A
C64          C69   1.408       .  A
C64        C1206   1.489   1_565  S
C65          C66   1.397   1_544  A
C65          H70   1.084       .  S
C66          C67   1.406       .  A
C66        C1182   1.490   1_565  S
C67          C68   1.422   1_556  A
C67          H71   1.079       .  S
C68          C69   1.418       .  A
C69          H72   1.079       .  S
C73          C74   1.406       .  A
C73          C78   1.400       .  A
C73        C1149   1.489       .  S
C74          C75   1.418       .  A
C74          H79   1.080       .  S
C75          C76   1.415       .  A
C76          C77   1.405       .  A
C76          H80   1.080       .  S
C77          C78   1.401       .  A
C77        C1134   1.488       .  S
C78          H81   1.084       .  S
C82          C83   1.396       .  A
C82          C87   1.408       .  A
C82        C1110   1.487       .  S
C83          C84   1.396       .  A
C83          H88   1.084   1_655  S
C84          C85   1.402       .  A
C84        C1086   1.480       .  S
C85          C86   1.415       .  A
C85          H89   1.078       .  S
C86          C87   1.423       .  A
C87          H90   1.077       .  S
C91          C92   1.397       .  A
C91          C96   1.409       .  A
C91        C1029   1.489       .  S
C92          C93   1.397       .  A
C92          H97   1.084       .  S
C93          C94   1.405       .  A
C93        C1053   1.485       .  S
C94          C95   1.420       .  A
C94          H98   1.079       .  S
C95          C96   1.422       .  A
C96          H99   1.079       .  S
C100        C101   1.402       .  A
C100        C105   1.397       .  A
C100       C1005   1.482       .  S
C101        C102   1.417       .  A
C101        H106   1.079       .  S
C102        C103   1.417       .  A
C103        C104   1.405       .  A
C103        H107   1.079       .  S
C104        C105   1.399       .  A
C104        C981   1.484       .  S
C105        H108   1.084       .  S
C109        C110   1.403       .  A
C109        C114   1.397       .  A
C109        C957   1.482       .  S
C110        C111   1.416       .  A
C110        H115   1.080       .  S
C111        C112   1.418       .  A
C111        C234   1.513       .  S
C112        C113   1.407       .  A
C112        H116   1.080       .  S
C113        C114   1.399       .  A
C113        C942   1.487       .  S
C114        H117   1.084       .  S
C118        C119   1.404       .  A
C118        C123   1.395       .  A
C118        C909   1.481       .  S
C119        C120   1.421       .  A
C119        H124   1.078       .  S
C120        C121   1.418       .  A
C120        C325   1.519       .  S
C121        C122   1.406       .  A
C121        H125   1.078       .  S
C122        C123   1.397       .  A
C122        C894   1.484       .  S
C123        H126   1.084       .  S
C127        C128   1.408       .  A
C127        C132   1.400       .  A
C127        C870   1.492       .  S
C128        C129   1.420       .  A
C128        H133   1.079       .  S
C129        C130   1.419       .  A
C129        C202   1.518       .  S
C130        C131   1.406       .  A
C130        H134   1.079       .  S
C131        C132   1.398       .  A
C131        C846   1.486       .  S
C132        H135   1.084       .  S
O136        C152   1.273       .  A
O136       Zn142   2.008       .  S
C137        C933   1.482       .  S
C137        O153   1.273       .  A
C137        O150   1.277       .  A
O138        C151   1.277       .  A
O138       Cd145   2.090       .  S
O139        C157   1.277       .  A
O139       Cd148   2.086       .  S
O140        C154   1.278       .  A
O140       Cd144   2.083       .  S
O141        C152   1.279       .  A
O141       Cd144   2.110       .  S
Zn142       O153   2.007       .  S
Zn142       O155   2.007       .  S
Zn142       O147   1.934       .  S
O143        C154   1.274       .  A
O143       Cd148   2.070       .  S
Cd144       O146   2.080       .  S
Cd144       O147   2.013       .  S
Cd145       O149   2.077       .  S
Cd145       O158   2.083       .  S
Cd145       O147   2.010       .  S
O146        C156   1.277       .  A
O147       Cd148   2.011       .  S
Cd148       O150   2.088       .  S
O149        C156   1.276       .  A
C151        C813   1.481       .  S
C151        O155   1.274       .  A
C152        C861   1.493       .  S
C154       C1293   1.492       .  S
C156       C1398   1.491       .  S
C157       C1173   1.491       .  S
C157        O158   1.277       .  A
C159        C160   1.409       .  A
C159        C164   1.401       .  A
C159        C798   1.491       .  S
C160        C161   1.421       .  A
C160        H165   1.079       .  S
C161        C162   1.419       .  A
C161        C254   1.520       .  S
C162        C163   1.406       .  A
C162        H166   1.079       .  S
C163        C164   1.399       .  A
C163        C765   1.487       .  S
C164        H167   1.084       .  S
C168        C169   1.398       .  A
C168        C173   1.407       .  A
C168        C822   1.487       .  S
C169        C170   1.395       .  A
C169        H174   1.084       .  S
C170        C171   1.402       .  A
C170        C741   1.482       .  S
C171        C172   1.417       .  A
C171        H175   1.080       .  S
C172        C173   1.419       .  A
C172        C284   1.513       .  S
C173        H176   1.079       .  S
O177        C193   1.273       .  A
O177       Zn183   2.010       .  S
C178        C789   1.491       .  S
C178        O194   1.273       .  A
C178        O191   1.278       .  A
O179        C192   1.278       .  A
O179       Cd186   2.091       .  S
O180        C198   1.277       .  A
O180       Cd189   2.083       .  S
O181        C195   1.277       .  A
O181       Cd185   2.087       .  S
O182        C193   1.276       .  A
O182       Cd185   2.090       .  S
Zn183       O194   2.010       .  S
Zn183       O196   2.005       .  S
Zn183       O188   1.936       .  S
O184        C195   1.276       .  A
O184       Cd189   2.070       .  S
Cd185       O187   2.076       .  S
Cd185       O188   2.012       .  S
Cd186       O190   2.083       .  S
Cd186       O199   2.085       .  S
Cd186       O188   2.013       .  S
O187        C197   1.276       .  A
O188       Cd189   2.010       .  S
Cd189       O191   2.102       .  S
O190        C197   1.276       .  A
C192        C750   1.482       .  S
C192        O196   1.273       .  A
C193        C726   1.473       .  S
C195       C1278   1.487       .  S
C197       C1461   1.485       .  S
C198       C1158   1.492       .  S
C198        O199   1.277       .  A
C200        C201   1.408       .  A
C200        C205   1.398       .  A
C200        C678   1.487       .  S
C201        C202   1.421       .  A
C201        H206   1.079       .  S
C202        C203   1.420       .  A
C203        C204   1.405       .  A
C203        H207   1.079       .  S
C204        C205   1.396       .  A
C204        C693   1.483       .  S
C205        H208   1.085       .  S
O209        C225   1.271       .  A
O209       Zn215   1.996       .  S
C210       C1365   1.483       .  S
C210        O226   1.272       .  A
C210        O223   1.279       .  A
O211        C224   1.276       .  A
O211       Cd218   2.094       .  S
O212        C230   1.277       .  A
O212       Cd221   2.089       .  S
O213        C227   1.279       .  A
O213       Cd217   2.093       .  S
O214        C225   1.278       .  A
O214       Cd217   2.102       .  S
Zn215       O226   1.996       .  S
Zn215       O228   2.013       .  S
Zn215       O220   1.934       .  S
O216        C227   1.277       .  A
O216       Cd221   2.087       .  S
Cd217       O219   2.087       .  S
Cd217       O220   2.016       .  S
Cd218       O222   2.074       .  S
Cd218       O231   2.078       .  S
Cd218       O220   2.008       .  S
O219        C229   1.278       .  A
O220       Cd221   2.014       .  S
Cd221       O223   2.100       .  S
O222        C229   1.277       .  A
C224       C1062   1.478       .  S
C224        O228   1.272       .  A
C225       C1518   1.489       .  S
C227        C654   1.494       .  S
C229        C966   1.488       .  S
C230        C702   1.493       .  S
C230        O231   1.277       .  A
C232        C233   1.405       .  A
C232        C237   1.398       .  A
C232        C621   1.485       .  S
C233        C234   1.419       .  A
C233        H238   1.080       .  S
C234        C235   1.417       .  A
C235        C236   1.405       .  A
C235        H239   1.080       .  S
C236        C237   1.398       .  A
C236        C717   1.482       .  S
C237        H240   1.084       .  S
C241        C242   1.408       .  A
C241        C246   1.398       .  A
C241        C645   1.488       .  S
C242        C243   1.422       .  A
C242        H247   1.080       .  S
C243        C244   1.418       .  A
C243        C316   1.518       .  S
C244        C245   1.404       .  A
C244        H248   1.079       .  S
C245        C246   1.397       .  A
C245        C597   1.486       .  S
C246        H249   1.085       .  S
C250        C251   1.395       .  A
C250        C255   1.407       .  A
C250        C582   1.486       .  S
C251        C252   1.397       .  A
C251        H256   1.084       .  S
C252        C253   1.408       .  A
C252        C558   1.489       .  S
C253        C254   1.420       .  A
C253        H257   1.079       .  S
C254        C255   1.422       .  A
C255        H258   1.079       .  S
O259        C275   1.272       .  A
O259       Zn265   2.001       .  S
C260       C1230   1.492       .  S
C260        O276   1.272       .  A
C260        O273   1.279       .  A
O261        C274   1.278       .  A
O261       Cd268   2.102       .  S
O262        C280   1.278       .  A
O262       Cd271   2.083       .  S
O263        C277   1.276       .  A
O263       Cd267   2.074       .  S
O264        C275   1.276       .  A
O264       Cd267   2.089       .  S
Zn265       O276   1.998       .  S
Zn265       O278   2.003       .  S
Zn265       O270   1.930       .  S
O266        C277   1.278       .  A
O266       Cd271   2.087       .  S
Cd267       O269   2.075       .  S
Cd267       O270   2.011       .  S
Cd268       O272   2.086       .  S
Cd268       O281   2.078       .  S
Cd268       O270   2.011       .  S
O269        C279   1.275       .  A
O270       Cd271   2.017       .  S
Cd271       O273   2.110       .  S
O272        C279   1.277       .  A
C274       C1038   1.487       .  S
C274        O278   1.273       .  A
C275       C1125   1.479       .  S
C277        C606   1.491       .  S
C279        C549   1.487       .  S
C280        C630   1.497       .  S
C280        O281   1.276       .  A
C282        C283   1.404       .  A
C282        C287   1.398       .  A
C282        C501   1.485       .  S
C283        C284   1.417       .  A
C283        H288   1.080       .  S
C284        C285   1.417       .  A
C285        C286   1.406       .  A
C285        H289   1.079       .  S
C286        C287   1.399       .  A
C286        C534   1.488       .  S
C287        H290   1.084       .  S
O291        C307   1.275       .  A
O291       Zn297   2.021       .  S
C292        C510   1.488       .  S
C292        O308   1.274       .  A
C292        O305   1.277       .  A
O293        C306   1.277       .  A
O293       Cd300   2.092       .  S
O294        C312   1.276       .  A
O294       Cd303   2.070       .  S
O295        C309   1.277       .  A
O295       Cd299   2.079       .  S
O296        C307   1.277       .  A
O296       Cd299   2.091       .  S
Zn297       O308   2.017       .  S
Zn297       O310   2.025       .  S
Zn297       O302   1.939       .  S
O298        C309   1.278       .  A
O298       Cd303   2.091       .  S
Cd299       O301   2.075       .  S
Cd299       O302   2.010       .  S
Cd300       O304   2.073       .  S
Cd300       O313   2.075       .  S
Cd300       O302   2.012       .  S
O301        C311   1.275       .  A
O302       Cd303   2.013       .  S
Cd303       O305   2.092       .  S
O304        C311   1.276       .  A
C306        C774   1.489       .  S
C306        O310   1.275       .  A
C307        C486   1.480       .  S
C309       C1494   1.491       .  S
C311        C990   1.487       .  S
C312       C1446   1.488       .  S
C312        O313   1.275       .  A
C314        C315   1.407       .  A
C314        C319   1.398       .  A
C314        C462   1.492       .  S
C315        C316   1.421       .  A
C315        H320   1.078       .  S
C316        C317   1.418       .  A
C317        C318   1.407       .  A
C317        H321   1.080       .  S
C318        C319   1.399       .  A
C318        C429   1.489       .  S
C319        H322   1.084       .  S
C323        C324   1.405       .  A
C323        C328   1.396       .  A
C323        C405   1.485       .  S
C324        C325   1.419       .  A
C324        H329   1.077       .  S
C325        C326   1.422       .  A
C326        C327   1.405       .  A
C326        H330   1.078       .  S
C327        C328   1.393       .  A
C327        C477   1.482       .  S
C328        H331   1.085       .  S
O332        C348   1.273       .  A
O332       Zn338   2.004       .  S
C333        C453   1.485       .  S
C333        O349   1.273       .  A
C333        O346   1.277       .  A
O334        C347   1.275       .  A
O334       Cd341   2.078       .  S
O335        C353   1.276       .  A
O335       Cd344   2.081       .  S
O336        C350   1.277       .  A
O336       Cd340   2.084       .  S
O337        C348   1.279       .  A
O337       Cd340   2.104       .  S
Zn338       O349   2.010       .  S
Zn338       O351   2.010       .  S
Zn338       O343   1.935       .  S
O339        C350   1.277       .  A
O339       Cd344   2.076       .  S
Cd340       O342   2.092       .  S
Cd340       O343   2.015       .  S
Cd341       O345   2.077       .  S
Cd341       O354   2.068       .  S
Cd341       O343   2.006       .  S
O342        C352   1.278       .  A
O343       Cd344   2.014       .  S
Cd344       O346   2.098       .  S
O345        C352   1.275       .  A
C347        C414   1.481       .  S
C347        O351   1.273       .  A
C348        C573   1.488       .  S
C350       C1413   1.493       .  S
C352       C1326   1.492       .  S
C353       C1254   1.489       .  S
C353        O354   1.276       .  A
O355        C371   1.272       .  A
O355       Zn361   2.001       .  S
C356       C1077   1.484       .  S
C356        O372   1.273       .  A
C356        O369   1.275       .  A
O357        C370   1.278       .  A
O357       Cd364   2.106       .  S
O358        C376   1.277       .  A
O358       Cd367   2.082       .  S
O359        C373   1.277       .  A
O359       Cd363   2.085       .  S
O360        C371   1.278       .  A
O360       Cd363   2.101       .  S
Zn361       O372   2.000       .  S
Zn361       O374   2.009       .  S
Zn361       O366   1.933       .  S
O362        C373   1.276       .  A
O362       Cd367   2.076       .  S
Cd363       O365   2.085       .  S
Cd363       O366   2.015       .  S
Cd364       O368   2.080       .  S
Cd364       O377   2.083       .  S
Cd364       O366   2.012       .  S
O365        C375   1.278       .  A
O366       Cd367   2.013       .  S
Cd367       O369   2.083       .  S
O368        C375   1.277       .  A
C370       C1542   1.495       .  S
C370        O374   1.273       .  A
C371       C1350   1.485       .  S
C373        C669   1.486       .  S
C375        C918   1.489       .  S
C376        C438   1.492       .  S
C376        O377   1.277       .  A
O378        C394   1.273       .  A
O378       Zn384   2.002       .  S
C379        C837   1.491       .  S
C379        O395   1.273       .  A
C379        O392   1.277       .  A
O380        C393   1.277       .  A
O380       Cd387   2.089       .  S
O381        C399   1.277       .  A
O381       Cd390   2.079       .  S
O382        C396   1.276       .  A
O382       Cd386   2.075       .  S
O383        C394   1.276       .  A
O383       Cd386   2.087       .  S
Zn384       O395   2.016       .  S
Zn384       O397   2.004       .  S
Zn384       O389   1.936       .  S
O385        C396   1.278       .  A
O385       Cd390   2.080       .  S
Cd386       O388   2.082       .  S
Cd386       O389   2.013       .  S
Cd387       O391   2.084       .  S
Cd387       O400   2.081       .  S
Cd387       O389   2.012       .  S
O388        C398   1.276       .  A
O389       Cd390   2.009       .  S
Cd390       O392   2.100       .  S
O391        C398   1.276       .  A
C393        C525   1.482       .  S
C393        O397   1.273       .  A
C394        C885   1.482       .  S
C396       C1014   1.487       .  S
C398       C1197   1.485       .  S
C399       C1101   1.489       .  S
C399        O400   1.276       .  A
C401        C402   1.403       .  A
C401        C406   1.402       .  A
C401        H411   1.084       .  S
C402        C403   1.410       .  A
C402        C407   1.479       .  S
C403        C404   1.396       .  A
C403        S408   1.805       .  S
C404        C405   1.405       .  A
C404        H409   1.084       .  S
C405        C406   1.416       .  A
C406        S410   1.803       .  S
C407        C412   1.409       .  A
C407        C416   1.400       .  A
S408        H424   1.405       .  S
S410        H421   1.406       .  S
C412        C413   1.404       .  A
C412        S417   1.806       .  S
C413        C414   1.406       .  A
C413        H418   1.083       .  S
C414        C415   1.417       .  A
C415        C416   1.398       .  A
C415        S419   1.804       .  S
C416        H420   1.084       .  S
S417        H422   1.407       .  S
S419        H423   1.407       .  S
C425        C426   1.403       .  A
C425        C430   1.404       .  A
C425        H435   1.084       .  S
C426        C427   1.412       .  A
C426        C431   1.484       .  S
C427        C428   1.399       .  A
C427        S432   1.805       .  S
C428        C429   1.405       .  A
C428        H433   1.084       .  S
C429        C430   1.416       .  A
C430        S434   1.803       .  S
C431        C436   1.408       .  A
C431        C440   1.401       .  A
S432        H448   1.405       .  S
S434        H445   1.406       .  S
C436        C437   1.406       .  A
C436        S441   1.806       .  S
C437        C438   1.410       .  A
C437        H442   1.082       .  S
C438        C439   1.418       .  A
C439        C440   1.401       .  A
C439        S443   1.803       .  S
C440        H444   1.084       .  S
S441        H446   1.407       .  S
S443        H447   1.408       .  S
C449        C450   1.402       .  A
C449        C454   1.400       .  A
C449        H459   1.084       .  S
C450        C451   1.415       .  A
C450        C455   1.486       .  S
C451        C452   1.406       .  A
C451        S456   1.805       .  S
C452        C453   1.406       .  A
C452        H457   1.084       .  S
C453        C454   1.416       .  A
C454        S458   1.804       .  S
C455        C460   1.409       .  A
C455        C464   1.404       .  A
S456        H472   1.404       .  S
S458        H469   1.407       .  S
C460        C461   1.402       .  A
C460        S465   1.808       .  S
C461        C462   1.406       .  A
C461        H466   1.083       .  S
C462        C463   1.416       .  A
C463        C464   1.406       .  A
C463        S467   1.803       .  S
C464        H468   1.083       .  S
S465        H470   1.407       .  S
S467        H471   1.406       .  S
C473        C474   1.402       .  A
C473        C478   1.399       .  A
C473        H483   1.084       .  S
C474        C475   1.415       .  A
C474        C479   1.481       .  S
C475        C476   1.404       .  A
C475        S480   1.807       .  S
C476        C477   1.404       .  A
C476        H481   1.084       .  S
C477        C478   1.413       .  A
C478        S482   1.805       .  S
C479        C484   1.411       .  A
C479        C488   1.399       .  A
S480        H496   1.402       .  S
S482        H493   1.406       .  S
C484        C485   1.408       .  A
C484        S489   1.805       .  S
C485        C486   1.405       .  A
C485        H490   1.083       .  S
C486        C487   1.413       .  A
C487        C488   1.398       .  A
C487        S491   1.799       .  S
C488        H492   1.084       .  S
S489        H494   1.407       .  S
S491        H495   1.406       .  S
C497        C498   1.403       .  A
C497        C502   1.402       .  A
C497        H507   1.084       .  S
C498        C499   1.413       .  A
C498        C503   1.484       .  S
C499        C500   1.400       .  A
C499        S504   1.804       .  S
C500        C501   1.404       .  A
C500        H505   1.084       .  S
C501        C502   1.415       .  A
C502        S506   1.803       .  S
C503        C508   1.410       .  A
C503        C512   1.399       .  A
S504        H520   1.406       .  S
S506        H517   1.406       .  S
C508        C509   1.409       .  A
C508        S513   1.805       .  S
C509        C510   1.408       .  A
C509        H514   1.082       .  S
C510        C511   1.416       .  A
C511        C512   1.396       .  A
C511        S515   1.799       .  S
C512        H516   1.084       .  S
S513        H518   1.407       .  S
S515        H519   1.407       .  S
C521        C522   1.404       .  A
C521        C526   1.403       .  A
C521        H531   1.084       .  S
C522        C523   1.412       .  A
C522        C527   1.483       .  S
C523        C524   1.398       .  A
C523        S528   1.805       .  S
C524        C525   1.406       .  A
C524        H529   1.084       .  S
C525        C526   1.415       .  A
C526        S530   1.803       .  S
C527        C532   1.411       .  A
C527        C536   1.400       .  A
S528        H544   1.406       .  S
S530        H541   1.407       .  S
C532        C533   1.405       .  A
C532        S537   1.807       .  S
C533        C534   1.406       .  A
C533        H538   1.083       .  S
C534        C535   1.417       .  A
C535        C536   1.398       .  A
C535        S539   1.803       .  S
C536        H540   1.084       .  S
S537        H542   1.407       .  S
S539        H543   1.406       .  S
C545        C546   1.402       .  A
C545        C550   1.401       .  A
C545        H555   1.084       .  S
C546        C547   1.412       .  A
C546        C551   1.483       .  S
C547        C548   1.403       .  A
C547        S552   1.804       .  S
C548        C549   1.407       .  A
C548        H553   1.084       .  S
C549        C550   1.418       .  A
C550        S554   1.804       .  S
C551        C556   1.409       .  A
C551        C560   1.401       .  A
S552        H568   1.405       .  S
S554        H565   1.407       .  S
C556        C557   1.405       .  A
C556        S561   1.806       .  S
C557        C558   1.405       .  A
C557        H562   1.083       .  S
C558        C559   1.417       .  A
C559        C560   1.401       .  A
C559        S563   1.804       .  S
C560        H564   1.084       .  S
S561        H566   1.407       .  S
S563        H567   1.407       .  S
C569        C570   1.406       .  A
C569        C574   1.406       .  A
C569        H579   1.084       .  S
C570        C571   1.411       .  A
C570        C575   1.488       .  S
C571        C572   1.399       .  A
C571        S576   1.804       .  S
C572        C573   1.407       .  A
C572        H577   1.084       .  S
C573        C574   1.416       .  A
C574        S578   1.802       .  S
C575        C580   1.411       .  A
C575        C584   1.403       .  A
S576        H592   1.406       .  S
S578        H589   1.407       .  S
C580        C581   1.408       .  A
C580        S585   1.805       .  S
C581        C582   1.405       .  A
C581        H586   1.083       .  S
C582        C583   1.415       .  A
C583        C584   1.400       .  A
C583        S587   1.804       .  S
C584        H588   1.084       .  S
S585        H590   1.407       .  S
S587        H591   1.406       .  S
C593        C594   1.403       .  A
C593        C598   1.407       .  A
C593        H603   1.083       .  S
C594        C595   1.411       .  A
C594        C599   1.483       .  S
C595        C596   1.399       .  A
C595        S600   1.804       .  S
C596        C597   1.404       .  A
C596        H601   1.084       .  S
C597        C598   1.413       .  A
C598        S602   1.807       .  S
C599        C604   1.407       .  A
C599        C608   1.401       .  A
S600        H616   1.405       .  S
S602        H613   1.407       .  S
C604        C605   1.405       .  A
C604        S609   1.806       .  S
C605        C606   1.410       .  A
C605        H610   1.083       .  S
C606        C607   1.417       .  A
C607        C608   1.401       .  A
C607        S611   1.802       .  S
C608        H612   1.084       .  S
S609        H614   1.407       .  S
S611        H615   1.407       .  S
C617        C618   1.404       .  A
C617        C622   1.403       .  A
C617        H627   1.084       .  S
C618        C619   1.413       .  A
C618        C623   1.486       .  S
C619        C620   1.400       .  A
C619        S624   1.804       .  S
C620        C621   1.404       .  A
C620        H625   1.084       .  S
C621        C622   1.415       .  A
C622        S626   1.803       .  S
C623        C628   1.408       .  A
C623        C632   1.401       .  A
S624        H640   1.406       .  S
S626        H637   1.406       .  S
C628        C629   1.406       .  A
C628        S633   1.806       .  S
C629        C630   1.412       .  A
C629        H634   1.082       .  S
C630        C631   1.421       .  A
C631        C632   1.400       .  A
C631        S635   1.802       .  S
C632        H636   1.084       .  S
S633        H638   1.407       .  S
S635        H639   1.408       .  S
C641        C642   1.406       .  A
C641        C646   1.408       .  A
C641        H651   1.084       .  S
C642        C643   1.412       .  A
C642        C647   1.488       .  S
C643        C644   1.398       .  A
C643        S648   1.804       .  S
C644        C645   1.404       .  A
C644        H649   1.084       .  S
C645        C646   1.415       .  A
C646        S650   1.803       .  S
C647        C652   1.410       .  A
C647        C656   1.401       .  A
S648        H664   1.404       .  S
S650        H661   1.405       .  S
C652        C653   1.408       .  A
C652        S657   1.806       .  S
C653        C654   1.408       .  A
C653        H658   1.082       .  S
C654        C655   1.420       .  A
C655        C656   1.403       .  A
C655        S659   1.803       .  S
C656        H660   1.084       .  S
S657        H662   1.407       .  S
S659        H663   1.407       .  S
C665        C666   1.403       .  A
C665        C670   1.403       .  A
C665        H675   1.084       .  S
C666        C667   1.412       .  A
C666        C671   1.485       .  S
C667        C668   1.401       .  A
C667        S672   1.804       .  S
C668        C669   1.406       .  A
C668        H673   1.084       .  S
C669        C670   1.417       .  A
C670        S674   1.803       .  S
C671        C676   1.409       .  A
C671        C680   1.404       .  A
S672        H688   1.406       .  S
S674        H685   1.407       .  S
C676        C677   1.402       .  A
C676        S681   1.808       .  S
C677        C678   1.405       .  A
C677        H682   1.083       .  S
C678        C679   1.415       .  A
C679        C680   1.405       .  A
C679        S683   1.803       .  S
C680        H684   1.084       .  S
S681        H686   1.407       .  S
S683        H687   1.406       .  S
C689        C690   1.403       .  A
C689        C694   1.401       .  A
C689        H699   1.084       .  S
C690        C691   1.413       .  A
C690        C695   1.485       .  S
C691        C692   1.403       .  A
C691        S696   1.803       .  S
C692        C693   1.403       .  A
C692        H697   1.084       .  S
C693        C694   1.414       .  A
C694        S698   1.804       .  S
C695        C700   1.407       .  A
C695        C704   1.401       .  A
S696        H712   1.405       .  S
S698        H709   1.406       .  S
C700        C701   1.405       .  A
C700        S705   1.806       .  S
C701        C702   1.410       .  A
C701        H706   1.082       .  S
C702        C703   1.419       .  A
C703        C704   1.403       .  A
C703        S707   1.802       .  S
C704        H708   1.084       .  S
S705        H710   1.407       .  S
S707        H711   1.407       .  S
C713        C714   1.404       .  A
C713        C718   1.401       .  A
C713        H723   1.084       .  S
C714        C715   1.413       .  A
C714        C719   1.485       .  S
C715        C716   1.401       .  A
C715        S720   1.803       .  S
C716        C717   1.404       .  A
C716        H721   1.084       .  S
C717        C718   1.414       .  A
C718        S722   1.804       .  S
C719        C724   1.411       .  A
C719        C728   1.402       .  A
S720        H736   1.406       .  S
S722        H733   1.406       .  S
C724        C725   1.408       .  A
C724        S729   1.805       .  S
C725        C726   1.404       .  A
C725        H730   1.083       .  S
C726        C727   1.411       .  A
C727        C728   1.398       .  A
C727        S731   1.804       .  S
C728        H732   1.084       .  S
S729        H734   1.407       .  S
S731        H735   1.406       .  S
C737        C738   1.403       .  A
C737        C742   1.399       .  A
C737        H747   1.084       .  S
C738        C739   1.412       .  A
C738        C743   1.483       .  S
C739        C740   1.401       .  A
C739        S744   1.803       .  S
C740        C741   1.404       .  A
C740        H745   1.084       .  S
C741        C742   1.414       .  A
C742        S746   1.805       .  S
C743        C748   1.408       .  A
C743        C752   1.403       .  A
S744        H760   1.406       .  S
S746        H757   1.406       .  S
C748        C749   1.403       .  A
C748        S753   1.807       .  S
C749        C750   1.406       .  A
C749        H754   1.083       .  S
C750        C751   1.414       .  A
C751        C752   1.402       .  A
C751        S755   1.803       .  S
C752        H756   1.084       .  S
S753        H758   1.407       .  S
S755        H759   1.407       .  S
C761        C762   1.405       .  A
C761        C766   1.404       .  A
C761        H771   1.084       .  S
C762        C763   1.414       .  A
C762        C767   1.490       .  S
C763        C764   1.402       .  A
C763        S768   1.804       .  S
C764        C765   1.404       .  A
C764        H769   1.084       .  S
C765        C766   1.415       .  A
C766        S770   1.804       .  S
C767        C772   1.411       .  A
C767        C776   1.402       .  A
S768        H784   1.406       .  S
S770        H781   1.406       .  S
C772        C773   1.409       .  A
C772        S777   1.806       .  S
C773        C774   1.407       .  A
C773        H778   1.083       .  S
C774        C775   1.416       .  A
C775        C776   1.404       .  A
C775        S779   1.809       .  S
C776        H780   1.083       .  S
S777        H782   1.407       .  S
S779        H783   1.407       .  S
C785        C786   1.401       .  A
C785        C790   1.401       .  A
C785        H795   1.084       .  S
C786        C787   1.414       .  A
C786        C791   1.489       .  S
C787        C788   1.405       .  A
C787        S792   1.804       .  S
C788        C789   1.406       .  A
C788        H793   1.084       .  S
C789        C790   1.419       .  A
C790        S794   1.803       .  S
C791        C796   1.410       .  A
C791        C800   1.404       .  A
S792        H808   1.405       .  S
S794        H805   1.407       .  S
C796        C797   1.404       .  A
C796        S801   1.807       .  S
C797        C798   1.405       .  A
C797        H802   1.083       .  S
C798        C799   1.417       .  A
C799        C800   1.406       .  A
C799        S803   1.803       .  S
C800        H804   1.084       .  S
S801        H806   1.407       .  S
S803        H807   1.406       .  S
C809        C810   1.404       .  A
C809        C814   1.403       .  A
C809        H819   1.084       .  S
C810        C811   1.412       .  A
C810        C815   1.483       .  S
C811        C812   1.399       .  A
C811        S816   1.805       .  S
C812        C813   1.405       .  A
C812        H817   1.084       .  S
C813        C814   1.415       .  A
C814        S818   1.802       .  S
C815        C820   1.409       .  A
C815        C824   1.404       .  A
S816        H832   1.406       .  S
S818        H829   1.407       .  S
C820        C821   1.400       .  A
C820        S825   1.808       .  S
C821        C822   1.406       .  A
C821        H826   1.083       .  S
C822        C823   1.415       .  A
C823        C824   1.404       .  A
C823        S827   1.803       .  S
C824        H828   1.084       .  S
S825        H830   1.407       .  S
S827        H831   1.406       .  S
C833        C834   1.405       .  A
C833        C838   1.405       .  A
C833        H843   1.084       .  S
C834        C835   1.413       .  A
C834        C839   1.491       .  S
C835        C836   1.402       .  A
C835        S840   1.804       .  S
C836        C837   1.407       .  A
C836        H841   1.084       .  S
C837        C838   1.415       .  A
C838        S842   1.798       .  S
C839        C844   1.412       .  A
C839        C848   1.404       .  A
S840        H856   1.406       .  S
S842        H853   1.407       .  S
C844        C845   1.408       .  A
C844        S849   1.806       .  S
C845        C846   1.405       .  A
C845        H850   1.083       .  S
C846        C847   1.414       .  A
C847        C848   1.401       .  A
C847        S851   1.804       .  S
C848        H852   1.084       .  S
S849        H854   1.407       .  S
S851        H855   1.406       .  S
C857        C858   1.405       .  A
C857        C862   1.408       .  A
C857        H867   1.084       .  S
C858        C859   1.412       .  A
C858        C863   1.489       .  S
C859        C860   1.399       .  A
C859        S864   1.805       .  S
C860        C861   1.408       .  A
C860        H865   1.084       .  S
C861        C862   1.418       .  A
C862        S866   1.801       .  S
C863        C868   1.410       .  A
C863        C872   1.403       .  A
S864        H880   1.405       .  S
S866        H877   1.407       .  S
C868        C869   1.407       .  A
C868        S873   1.805       .  S
C869        C870   1.407       .  A
C869        H874   1.083       .  S
C870        C871   1.416       .  A
C871        C872   1.402       .  A
C871        S875   1.804       .  S
C872        H876   1.084       .  S
S873        H878   1.407       .  S
S875        H879   1.407       .  S
C881        C882   1.403       .  A
C881        C886   1.404       .  A
C881        H891   1.084       .  S
C882        C883   1.411       .  A
C882        C887   1.481       .  S
C883        C884   1.396       .  A
C883        S888   1.805       .  S
C884        C885   1.405       .  A
C884        H889   1.084       .  S
C885        C886   1.416       .  A
C886        S890   1.802       .  S
C887        C892   1.409       .  A
C887        C896   1.402       .  A
S888        H904   1.405       .  S
S890        H901   1.407       .  S
C892        C893   1.402       .  A
C892        S897   1.807       .  S
C893        C894   1.404       .  A
C893        H898   1.083       .  S
C894        C895   1.415       .  A
C895        C896   1.402       .  A
C895        S899   1.804       .  S
C896        H900   1.084       .  S
S897        H902   1.407       .  S
S899        H903   1.406       .  S
C905        C906   1.403       .  A
C905        C910   1.400       .  A
C905        H915   1.084       .  S
C906        C907   1.413       .  A
C906        C911   1.484       .  S
C907        C908   1.403       .  A
C907        S912   1.804       .  S
C908        C909   1.404       .  A
C908        H913   1.084       .  S
C909        C910   1.413       .  A
C910        S914   1.804       .  S
C911        C916   1.409       .  A
C911        C920   1.401       .  A
S912        H928   1.405       .  S
S914        H925   1.406       .  S
C916        C917   1.406       .  A
C916        S921   1.806       .  S
C917        C918   1.407       .  A
C917        H922   1.082       .  S
C918        C919   1.420       .  A
C919        C920   1.402       .  A
C919        S923   1.803       .  S
C920        H924   1.084       .  S
S921        H926   1.407       .  S
S923        H927   1.407       .  S
C929        C930   1.402       .  A
C929        C934   1.399       .  A
C929        H939   1.084       .  S
C930        C931   1.414       .  A
C930        C935   1.486       .  S
C931        C932   1.403       .  A
C931        S936   1.803       .  S
C932        C933   1.404       .  A
C932        H937   1.084       .  S
C933        C934   1.416       .  A
C934        S938   1.805       .  S
C935        C940   1.412       .  A
C935        C944   1.402       .  A
S936        H952   1.406       .  S
S938        H949   1.407       .  S
C940        C941   1.405       .  A
C940        S945   1.807       .  S
C941        C942   1.405       .  A
C941        H946   1.083       .  S
C942        C943   1.416       .  A
C943        C944   1.400       .  A
C943        S947   1.804       .  S
C944        H948   1.084       .  S
S945        H950   1.407       .  S
S947        H951   1.406       .  S
C953        C954   1.403       .  A
C953        C958   1.403       .  A
C953        H963   1.084       .  S
C954        C955   1.412       .  A
C954        C959   1.481       .  S
C955        C956   1.399       .  A
C955        S960   1.804       .  S
C956        C957   1.403       .  A
C956        H961   1.084       .  S
C957        C958   1.414       .  A
C958        S962   1.804       .  S
C959        C964   1.407       .  A
C959        C968   1.402       .  A
S960        H976   1.404       .  S
S962        H973   1.406       .  S
C964        C965   1.402       .  A
C964        S969   1.807       .  S
C965        C966   1.408       .  A
C965        H970   1.082       .  S
C966        C967   1.418       .  A
C967        C968   1.403       .  A
C967        S971   1.802       .  S
C968        H972   1.084       .  S
S969        H974   1.407       .  S
S971        H975   1.407       .  S
C977        C978   1.401       .  A
C977        C982   1.399       .  A
C977        H987   1.084       .  S
C978        C979   1.413       .  A
C978        C983   1.479       .  S
C979        C980   1.401       .  A
C979        S984   1.805       .  S
C980        C981   1.404       .  A
C980        H985   1.084       .  S
C981        C982   1.415       .  A
C982        S986   1.804       .  S
C983        C988   1.407       .  A
C983        C992   1.401       .  A
S984       H1000   1.403       .  S
S986        H997   1.406       .  S
C988        C989   1.402       .  A
C988        S993   1.807       .  S
C989        C990   1.408       .  A
C989        H994   1.082       .  S
C990        C991   1.418       .  A
C991        C992   1.402       .  A
C991        S995   1.802       .  S
C992        H996   1.084       .  S
S993        H998   1.407       .  S
S995        H999   1.407       .  S
C1001      C1002   1.401       .  A
C1001      C1006   1.397   1_455  A
C1001      H1011   1.084       .  S
C1002      C1003   1.413       .  A
C1002      C1007   1.480       .  S
C1003      C1004   1.403   1_455  A
C1003      S1008   1.804       .  S
C1004      C1005   1.404       .  A
C1004      H1009   1.084       .  S
C1005      C1006   1.414       .  A
C1006      S1010   1.805       .  S
C1007      C1012   1.408       .  A
C1007      C1016   1.400       .  A
S1008      H1024   1.404       .  S
S1010      H1021   1.406       .  S
C1012      C1013   1.405       .  A
C1012      S1017   1.806       .  S
C1013      C1014   1.408       .  A
C1013      H1018   1.083       .  S
C1014      C1015   1.419       .  A
C1015      C1016   1.400       .  A
C1015      S1019   1.803       .  S
C1016      H1020   1.084       .  S
S1017      H1022   1.407       .  S
S1019      H1023   1.407       .  S
C1025      C1026   1.404       .  A
C1025      C1030   1.402       .  A
C1025      H1035   1.084       .  S
C1026      C1027   1.414       .  A
C1026      C1031   1.487       .  S
C1027      C1028   1.403       .  A
C1027      S1032   1.805       .  S
C1028      C1029   1.407       .  A
C1028      H1033   1.084       .  S
C1029      C1030   1.415       .  A
C1030      S1034   1.803       .  S
C1031      C1036   1.411       .  A
C1031      C1040   1.401       .  A
S1032      H1048   1.405       .  S
S1034      H1045   1.407       .  S
C1036      C1037   1.410       .  A
C1036      S1041   1.805       .  S
C1037      C1038   1.407       .  A
C1037      H1042   1.083       .  S
C1038      C1039   1.418       .  A
C1039      C1040   1.398       .  A
C1039      S1043   1.805       .  S
C1040      H1044   1.084       .  S
S1041      H1046   1.407       .  S
S1043      H1047   1.407       .  S
C1049      C1050   1.403   1_655  A
C1049      C1054   1.400       .  A
C1049      H1059   1.084   1_655  S
C1050      C1051   1.414       .  A
C1050      C1055   1.485       .  S
C1051      C1052   1.404   1_455  A
C1051      S1056   1.804       .  S
C1052      C1053   1.404       .  A
C1052      H1057   1.084       .  S
C1053      C1054   1.414       .  A
C1054      S1058   1.805       .  S
C1055      C1060   1.411       .  A
C1055      C1064   1.402       .  A
S1056      H1072   1.405       .  S
S1058      H1069   1.406       .  S
C1060      C1061   1.406       .  A
C1060      S1065   1.806       .  S
C1061      C1062   1.403       .  A
C1061      H1066   1.083       .  S
C1062      C1063   1.414       .  A
C1063      C1064   1.402       .  A
C1063      S1067   1.803       .  S
C1064      H1068   1.084       .  S
S1065      H1070   1.407       .  S
S1067      H1071   1.406       .  S
C1073      C1074   1.403       .  A
C1073      C1078   1.401       .  A
C1073      H1083   1.084       .  S
C1074      C1075   1.411       .  A
C1074      C1079   1.481       .  S
C1075      C1076   1.396       .  A
C1075      S1080   1.805       .  S
C1076      C1077   1.406       .  A
C1076      H1081   1.084       .  S
C1077      C1078   1.417       .  A
C1078      S1082   1.801       .  S
C1079      C1084   1.410       .  A
C1079      C1088   1.402       .  A
S1080      H1096   1.406   1_455  S
S1082      H1093   1.407       .  S
C1084      C1085   1.405   1_455  A
C1084      S1089   1.806       .  S
C1085      C1086   1.405       .  A
C1085      H1090   1.083       .  S
C1086      C1087   1.414   1_655  A
C1087      C1088   1.395       .  A
C1087      S1091   1.805       .  S
C1088      H1092   1.084       .  S
S1089      H1094   1.407   1_455  S
S1091      H1095   1.407   1_455  S
C1097      C1098   1.403       .  A
C1097      C1102   1.404       .  A
C1097      H1107   1.084       .  S
C1098      C1099   1.410       .  A
C1098      C1103   1.484       .  S
C1099      C1100   1.400       .  A
C1099      S1104   1.804       .  S
C1100      C1101   1.407       .  A
C1100      H1105   1.084       .  S
C1101      C1102   1.417       .  A
C1102      S1106   1.803       .  S
C1103      C1108   1.409       .  A
C1103      C1112   1.403       .  A
S1104      H1120   1.404   1_455  S
S1106      H1117   1.407       .  S
C1108      C1109   1.404   1_545  A
C1108      S1113   1.807       .  S
C1109      C1110   1.405   1_455  A
C1109      H1114   1.083       .  S
C1110      C1111   1.413   1_565  A
C1111      C1112   1.407   1_655  A
C1111      S1115   1.806       .  S
C1112      H1116   1.083       .  S
S1113      H1118   1.407       .  S
S1115      H1119   1.407       .  S
C1121      C1122   1.401       .  A
C1121      C1126   1.396       .  A
C1121      H1131   1.084       .  S
C1122      C1123   1.415       .  A
C1122      C1127   1.480       .  S
C1123      C1124   1.405       .  A
C1123      S1128   1.807       .  S
C1124      C1125   1.405       .  A
C1124      H1129   1.084       .  S
C1125      C1126   1.414       .  A
C1126      S1130   1.805       .  S
C1127      C1132   1.408       .  A
C1127      C1136   1.401       .  A
S1128      H1144   1.402       .  S
S1130      H1141   1.407       .  S
C1132      C1133   1.405       .  A
C1132      S1137   1.805       .  S
C1133      C1134   1.407       .  A
C1133      H1138   1.083       .  S
C1134      C1135   1.417       .  A
C1135      C1136   1.400       .  A
C1135      S1139   1.804       .  S
C1136      H1140   1.084       .  S
S1137      H1142   1.407       .  S
S1139      H1143   1.406       .  S
C1145      C1146   1.403       .  A
C1145      C1150   1.403       .  A
C1145      H1155   1.084       .  S
C1146      C1147   1.412       .  A
C1146      C1151   1.486       .  S
C1147      C1148   1.401   1_545  A
C1147      S1152   1.804       .  S
C1148      C1149   1.405       .  A
C1148      H1153   1.084       .  S
C1149      C1150   1.416   1_565  A
C1150      S1154   1.803       .  S
C1151      C1156   1.408       .  A
C1151      C1160   1.402       .  A
S1152      H1168   1.405       .  S
S1154      H1165   1.406   1_545  S
C1156      C1157   1.407       .  A
C1156      S1161   1.806       .  S
C1157      C1158   1.410       .  A
C1157      H1162   1.083       .  S
C1158      C1159   1.417       .  A
C1159      C1160   1.402       .  A
C1159      S1163   1.802       .  S
C1160      H1164   1.084       .  S
S1161      H1166   1.407       .  S
S1163      H1167   1.407       .  S
C1169      C1170   1.404       .  A
C1169      C1174   1.405       .  A
C1169      H1179   1.084       .  S
C1170      C1171   1.411       .  A
C1170      C1175   1.487       .  S
C1171      C1172   1.402       .  A
C1171      S1176   1.804       .  S
C1172      C1173   1.407       .  A
C1172      H1177   1.084       .  S
C1173      C1174   1.417       .  A
C1174      S1178   1.803       .  S
C1175      C1180   1.410       .  A
C1175      C1184   1.402       .  A
S1176      H1192   1.405       .  S
S1178      H1189   1.407       .  S
C1180      C1181   1.408       .  A
C1180      S1185   1.805       .  S
C1181      C1182   1.406       .  A
C1181      H1186   1.083   1_545  S
C1182      C1183   1.416       .  A
C1183      C1184   1.402       .  A
C1183      S1187   1.804       .  S
C1184      H1188   1.084       .  S
S1185      H1190   1.407       .  S
S1187      H1191   1.406       .  S
C1193      C1194   1.403       .  A
C1193      C1198   1.402       .  A
C1193      H1203   1.084       .  S
C1194      C1195   1.413       .  A
C1194      C1199   1.485       .  S
C1195      C1196   1.402       .  A
C1195      S1200   1.805       .  S
C1196      C1197   1.406       .  A
C1196      H1201   1.084       .  S
C1197      C1198   1.415       .  A
C1198      S1202   1.803       .  S
C1199      C1204   1.409       .  A
C1199      C1208   1.404       .  A
S1200      H1216   1.405       .  S
S1202      H1213   1.407       .  S
C1204      C1205   1.403       .  A
C1204      S1209   1.807       .  S
C1205      C1206   1.406       .  A
C1205      H1210   1.083       .  S
C1206      C1207   1.416       .  A
C1207      C1208   1.404       .  A
C1207      S1211   1.803   1_545  S
C1208      H1212   1.084       .  S
S1209      H1214   1.407       .  S
S1211      H1215   1.406       .  S
C1217      C1218   1.405       .  A
C1217      C1222   1.402       .  A
C1217      H1227   1.084       .  S
C1218      C1219   1.413       .  A
C1218      C1223   1.490       .  S
C1219      C1220   1.403       .  A
C1219      S1224   1.803       .  S
C1220      C1221   1.405       .  A
C1220      H1225   1.084       .  S
C1221      C1222   1.415       .  A
C1222      S1226   1.804       .  S
C1223      C1228   1.409       .  A
C1223      C1232   1.406       .  A
S1224      H1240   1.406       .  S
S1226      H1237   1.406       .  S
C1228      C1229   1.402       .  A
C1228      S1233   1.808       .  S
C1229      C1230   1.409       .  A
C1229      H1234   1.083       .  S
C1230      C1231   1.416       .  A
C1231      C1232   1.406       .  A
C1231      S1235   1.801       .  S
C1232      H1236   1.084       .  S
S1233      H1238   1.407       .  S
S1235      H1239   1.407       .  S
C1241      C1242   1.402       .  A
C1241      C1246   1.401       .  A
C1241      H1251   1.084       .  S
C1242      C1243   1.412       .  A
C1242      C1247   1.483       .  S
C1243      C1244   1.399       .  A
C1243      S1248   1.804       .  S
C1244      C1245   1.405       .  A
C1244      H1249   1.084       .  S
C1245      C1246   1.418       .  A
C1246      S1250   1.804       .  S
C1247      C1252   1.409       .  A
C1247      C1256   1.402       .  A
S1248      H1264   1.406       .  S
S1250      H1261   1.406       .  S
C1252      C1253   1.400       .  A
C1252      S1257   1.809       .  S
C1253      C1254   1.407       .  A
C1253      H1258   1.082       .  S
C1254      C1255   1.419       .  A
C1255      C1256   1.403       .  A
C1255      S1259   1.802       .  S
C1256      H1260   1.084       .  S
S1257      H1262   1.407       .  S
S1259      H1263   1.407       .  S
C1265      C1266   1.402       .  A
C1265      C1270   1.401       .  A
C1265      H1275   1.084       .  S
C1266      C1267   1.412       .  A
C1266      C1271   1.483       .  S
C1267      C1268   1.400       .  A
C1267      S1272   1.804       .  S
C1268      C1269   1.406       .  A
C1268      H1273   1.084       .  S
C1269      C1270   1.416       .  A
C1270      S1274   1.804       .  S
C1271      C1276   1.408       .  A
C1271      C1280   1.403       .  A
S1272      H1288   1.405       .  S
S1274      H1285   1.406       .  S
C1276      C1277   1.401       .  A
C1276      S1281   1.808       .  S
C1277      C1278   1.407       .  A
C1277      H1282   1.083       .  S
C1278      C1279   1.417       .  A
C1279      C1280   1.404       .  A
C1279      S1283   1.802       .  S
C1280      H1284   1.084       .  S
S1281      H1286   1.407       .  S
S1283      H1287   1.407       .  S
C1289      C1290   1.399       .  A
C1289      C1294   1.402       .  A
C1289      H1299   1.084       .  S
C1290      C1291   1.412       .  A
C1290      C1295   1.481       .  S
C1291      C1292   1.399       .  A
C1291      S1296   1.805       .  S
C1292      C1293   1.407       .  A
C1292      H1297   1.083       .  S
C1293      C1294   1.423       .  A
C1294      S1298   1.803       .  S
C1295      C1300   1.409       .  A
C1295      C1304   1.401       .  A
S1296      H1312   1.405       .  S
S1298      H1309   1.408       .  S
C1300      C1301   1.402   1_455  A
C1300      S1305   1.807       .  S
C1301      C1302   1.404       .  A
C1301      H1306   1.083       .  S
C1302      C1303   1.416   1_655  A
C1303      C1304   1.401       .  A
C1303      S1307   1.804   1_455  S
C1304      H1308   1.084       .  S
S1305      H1310   1.407   1_455  S
S1307      H1311   1.406       .  S
C1313      C1314   1.403       .  A
C1313      C1318   1.401       .  A
C1313      H1323   1.084       .  S
C1314      C1315   1.414       .  A
C1314      C1319   1.487       .  S
C1315      C1316   1.404       .  A
C1315      S1320   1.803       .  S
C1316      C1317   1.403       .  A
C1316      H1321   1.084       .  S
C1317      C1318   1.413       .  A
C1318      S1322   1.804       .  S
C1319      C1324   1.410       .  A
C1319      C1328   1.401       .  A
S1320      H1336   1.405       .  S
S1322      H1333   1.406       .  S
C1324      C1325   1.407       .  A
C1324      S1329   1.806       .  S
C1325      C1326   1.408       .  A
C1325      H1330   1.082       .  S
C1326      C1327   1.420       .  A
C1327      C1328   1.402       .  A
C1327      S1331   1.804       .  S
C1328      H1332   1.084       .  S
S1329      H1334   1.407       .  S
S1331      H1335   1.407       .  S
C1337      C1338   1.404       .  A
C1337      C1342   1.406   1_455  A
C1337      H1347   1.084       .  S
C1338      C1339   1.411   1_455  A
C1338      C1343   1.486       .  S
C1339      C1340   1.398       .  A
C1339      S1344   1.805       .  S
C1340      C1341   1.407       .  A
C1340      H1345   1.084       .  S
C1341      C1342   1.418       .  A
C1342      S1346   1.803       .  S
C1343      C1348   1.411       .  A
C1343      C1352   1.400       .  A
S1344      H1360   1.406   1_655  S
S1346      H1357   1.406       .  S
C1348      C1349   1.409       .  A
C1348      S1353   1.805       .  S
C1349      C1350   1.406       .  A
C1349      H1354   1.083       .  S
C1350      C1351   1.417       .  A
C1351      C1352   1.399       .  A
C1351      S1355   1.805       .  S
C1352      H1356   1.084       .  S
S1353      H1358   1.407       .  S
S1355      H1359   1.407       .  S
C1361      C1362   1.400       .  A
C1361      C1366   1.399       .  A
C1361      H1371   1.084       .  S
C1362      C1363   1.415       .  A
C1362      C1367   1.484       .  S
C1363      C1364   1.404       .  A
C1363      S1368   1.805       .  S
C1364      C1365   1.404       .  A
C1364      H1369   1.084       .  S
C1365      C1366   1.418       .  A
C1366      S1370   1.805       .  S
C1367      C1372   1.410       .  A
C1367      C1376   1.402       .  A
S1368      H1384   1.405       .  S
S1370      H1381   1.407       .  S
C1372      C1373   1.406   1_455  A
C1372      S1377   1.806       .  S
C1373      C1374   1.405       .  A
C1373      H1378   1.083       .  S
C1374      C1375   1.414   1_655  A
C1375      C1376   1.399       .  A
C1375      S1379   1.804       .  S
C1376      H1380   1.084       .  S
S1377      H1382   1.407   1_455  S
S1379      H1383   1.407   1_455  S
C1385      C1386   1.403       .  A
C1385      C1390   1.399   1_545  A
C1385      H1395   1.084       .  S
C1386      C1387   1.414       .  A
C1386      C1391   1.483       .  S
C1387      C1388   1.402       .  A
C1387      S1392   1.803       .  S
C1388      C1389   1.402   1_445  A
C1388      H1393   1.084   1_445  S
C1389      C1390   1.413   1_655  A
C1390      S1394   1.805       .  S
C1391      C1396   1.408       .  A
C1391      C1400   1.401       .  A
S1392      H1408   1.405       .  S
S1394      H1405   1.405   1_455  S
C1396      C1397   1.403       .  A
C1396      S1401   1.807       .  S
C1397      C1398   1.409       .  A
C1397      H1402   1.082       .  S
C1398      C1399   1.419       .  A
C1399      C1400   1.402       .  A
C1399      S1403   1.802       .  S
C1400      H1404   1.084       .  S
S1401      H1406   1.407       .  S
S1403      H1407   1.407       .  S
C1409      C1410   1.403       .  A
C1409      C1414   1.404       .  A
C1409      H1419   1.084       .  S
C1410      C1411   1.411       .  A
C1410      C1415   1.485       .  S
C1411      C1412   1.399       .  A
C1411      S1416   1.805       .  S
C1412      C1413   1.408       .  A
C1412      H1417   1.084       .  S
C1413      C1414   1.420       .  A
C1414      S1418   1.802       .  S
C1415      C1420   1.410       .  A
C1415      C1424   1.404       .  A
S1416      H1432   1.405       .  S
S1418      H1429   1.408       .  S
C1420      C1421   1.404       .  A
C1420      S1425   1.806       .  S
C1421      C1422   1.404       .  A
C1421      H1426   1.083       .  S
C1422      C1423   1.413       .  A
C1423      C1424   1.403       .  A
C1423      S1427   1.804       .  S
C1424      H1428   1.084       .  S
S1425      H1430   1.407       .  S
S1427      H1431   1.405       .  S
C1433      C1434   1.402       .  A
C1433      C1438   1.400       .  A
C1433      H1443   1.084       .  S
C1434      C1435   1.412       .  A
C1434      C1439   1.477       .  S
C1435      C1436   1.398       .  A
C1435      S1440   1.805       .  S
C1436      C1437   1.402   1_545  A
C1436      H1441   1.084       .  S
C1437      C1438   1.412   1_565  A
C1438      S1442   1.804   1_545  S
C1439      C1444   1.406       .  A
C1439      C1448   1.400       .  A
S1440      H1456   1.404       .  S
S1442      H1453   1.406       .  S
C1444      C1445   1.400       .  A
C1444      S1449   1.808       .  S
C1445      C1446   1.408       .  A
C1445      H1450   1.082       .  S
C1446      C1447   1.419       .  A
C1447      C1448   1.401       .  A
C1447      S1451   1.802       .  S
C1448      H1452   1.084       .  S
S1449      H1454   1.407       .  S
S1451      H1455   1.407       .  S
C1457      C1458   1.401       .  A
C1457      C1462   1.398       .  A
C1457      H1467   1.084       .  S
C1458      C1459   1.412       .  A
C1458      C1463   1.483       .  S
C1459      C1460   1.405       .  A
C1459      S1464   1.804       .  S
C1460      C1461   1.407       .  A
C1460      H1465   1.084       .  S
C1461      C1462   1.416       .  A
C1462      S1466   1.804       .  S
C1463      C1468   1.409       .  A
C1463      C1472   1.402       .  A
S1464      H1480   1.405       .  S
S1466      H1477   1.407       .  S
C1468      C1469   1.404       .  A
C1468      S1473   1.806       .  S
C1469      C1470   1.405       .  A
C1469      H1474   1.083   1_545  S
C1470      C1471   1.415       .  A
C1471      C1472   1.402       .  A
C1471      S1475   1.803       .  S
C1472      H1476   1.084       .  S
S1473      H1478   1.407   1_545  S
S1475      H1479   1.407       .  S
C1481      C1482   1.402       .  A
C1481      C1486   1.402       .  A
C1481      H1491   1.084       .  S
C1482      C1483   1.414       .  A
C1482      C1487   1.486       .  S
C1483      C1484   1.403       .  A
C1483      S1488   1.804       .  S
C1484      C1485   1.405       .  A
C1484      H1489   1.084   1_545  S
C1485      C1486   1.416       .  A
C1486      S1490   1.804       .  S
C1487      C1492   1.408       .  A
C1487      C1496   1.403       .  A
S1488      H1504   1.405       .  S
S1490      H1501   1.406       .  S
C1492      C1493   1.405       .  A
C1492      S1497   1.807       .  S
C1493      C1494   1.408       .  A
C1493      H1498   1.083       .  S
C1494      C1495   1.417       .  A
C1495      C1496   1.404       .  A
C1495      S1499   1.802       .  S
C1496      H1500   1.084       .  S
S1497      H1502   1.407       .  S
S1499      H1503   1.407       .  S
C1505      C1506   1.404       .  A
C1505      C1510   1.403       .  A
C1505      H1515   1.084       .  S
C1506      C1507   1.413       .  A
C1506      C1511   1.486       .  S
C1507      C1508   1.399       .  A
C1507      S1512   1.804       .  S
C1508      C1509   1.404       .  A
C1508      H1513   1.084       .  S
C1509      C1510   1.414       .  A
C1510      S1514   1.803       .  S
C1511      C1516   1.410       .  A
C1511      C1520   1.399       .  A
S1512      H1528   1.406       .  S
S1514      H1525   1.406       .  S
C1516      C1517   1.409       .  A
C1516      S1521   1.805       .  S
C1517      C1518   1.408       .  A
C1517      H1522   1.082       .  S
C1518      C1519   1.419       .  A
C1519      C1520   1.396       .  A
C1519      S1523   1.804       .  S
C1520      H1524   1.084       .  S
S1521      H1526   1.407       .  S
S1523      H1527   1.407       .  S
C1529      C1530   1.404       .  A
C1529      C1534   1.401       .  A
C1529      H1539   1.084       .  S
C1530      C1531   1.415       .  A
C1530      C1535   1.492       .  S
C1531      C1532   1.406       .  A
C1531      S1536   1.803       .  S
C1532      C1533   1.406       .  A
C1532      H1537   1.084       .  S
C1533      C1534   1.416       .  A
C1534      S1538   1.804       .  S
C1535      C1540   1.409       .  A
C1535      C1544   1.405       .  A
S1536      H1552   1.406       .  S
S1538      H1549   1.406       .  S
C1540      C1541   1.404       .  A
C1540      S1545   1.808       .  S
C1541      C1542   1.409       .  A
C1541      H1546   1.082       .  S
C1542      C1543   1.418       .  A
C1543      C1544   1.407       .  A
C1543      S1547   1.801       .  S
C1544      H1548   1.084       .  S
S1545      H1550   1.407       .  S
S1547      H1551   1.407       .  S
