geometry optimzed in LAMMPS
_audit_creation_date              2020-11-30 
_audit_creation_method            'lammps2cif' 
_symmetry_space_group_name_H-M    'P1' 
_symmetry_Int_Tables_number       1 
_symmetry_cell_setting            triclinic 
loop_ 
_symmetry_equiv_pos_as_xyz 
  x,y,z 
_cell_length_a                    49.92092499 
_cell_length_b                    50.42964977554166 
_cell_length_c                    54.1319213908289 
_cell_angle_alpha                 91.10420418374693 
_cell_angle_beta                  88.65203760766892 
_cell_angle_gamma                 114.98977665834518 
loop_ 
_atom_site_label 
_atom_site_type_symbol 
_atom_site_fract_x 
_atom_site_fract_y 
_atom_site_fract_z 
_atom_site_charge 
O1          O  0.35627269  0.11944052  0.02681089    -0.80800
O2          O  0.35929511  0.23073363  0.97550632    -0.65500
O3          O  0.34646500  0.17005400  0.02254410    -1.12100
C4          C  0.27166766  0.11310280  0.96561067     1.06000
O5          O  0.31164929  0.21685407  0.98002420    -0.78700
O6          O  0.26724176  0.16850885  0.99627243    -0.66300
Ni7        Ni  0.37690496  0.16070435  0.03403947     1.34900
C8          C  0.26729660  0.15804635  0.01728373     0.84800
O9          O  0.38685045  0.22948707  0.01864508    -0.79300
O10         O  0.40026094  0.20098140  0.04220717    -0.89600
C11         C  0.33615993  0.23468170  0.97112100     0.84400
O12         O  0.39815921  0.16496633  0.00383582    -0.67800
O13         O  0.27364380  0.13728421  0.95683427    -0.87000
C14         C  0.40118356  0.17946703  0.98435428     0.85200
C15         C  0.40359545  0.22603336  0.03475308     1.06800
H16         H  0.33381272  0.16503957  0.96679926     0.38600
O17         O  0.32482997  0.17025926  0.98083521    -1.09700
O18         O  0.28631044  0.14861974  0.02302997    -0.66400
Ni19       Ni  0.31561895  0.14032741  0.00430890     1.26300
O20         O  0.38554758  0.19347335  0.98017314    -0.66600
O21         O  0.28561043  0.11131381  0.98451243    -0.78900
C22         C  0.32944113  0.10280152  0.03182162     0.84600
O23         O  0.30919803  0.11092059  0.02798648    -0.66100
Ni24       Ni  0.29333274  0.17726506  0.96836503     1.27400
Ni25       Ni  0.35551650  0.20074409  0.99915210     1.26100
H26         H  0.33779300  0.17525251  0.03714917     0.39100
O27         O  0.28136791  0.19554131  0.47857193    -0.80800
O28         O  0.38876320  0.19540133  0.52781052    -0.65500
O29         O  0.32751281  0.17926525  0.48133459    -1.12100
C30         C  0.27381018  0.09788742  0.52900311     1.06000
O31         O  0.38157027  0.14893785  0.52750455    -0.78700
O32         O  0.34293921  0.12058627  0.49190581    -0.66300
Ni33       Ni  0.32179808  0.21034195  0.46687356     1.34900
C34         C  0.32078255  0.11116307  0.47793633     0.84800
O35         O  0.38776220  0.21885428  0.48424927    -0.79300
O36         O  0.36170444  0.22578881  0.45370007    -0.89600
C37         C  0.39713736  0.17564640  0.53278405     0.84400
O38         O  0.33349098  0.23795046  0.49399675    -0.67800
O39         O  0.29911210  0.09778208  0.52698182    -0.87000
C40         C  0.34159541  0.23659737  0.51585190     0.85200
C41         C  0.38609640  0.22901213  0.46322908     1.06800
H42         H  0.32592625  0.16408360  0.53866012     0.38600
O43         O  0.32953480  0.15733115  0.52270199    -1.09700
O44         O  0.30018560  0.11953827  0.48079931    -0.66400
Ni45       Ni  0.29708246  0.15033082  0.50118730     1.26300
O46         O  0.34880265  0.21646169  0.52260837    -0.66600
O47         O  0.26908431  0.11975338  0.52204812    -0.78900
C48         C  0.26197895  0.17006726  0.47324336     0.84600
O49         O  0.26570556  0.14760750  0.47963245    -0.66100
Ni50       Ni  0.33967870  0.12543265  0.52646906     1.27400
Ni51       Ni  0.35862436  0.18856568  0.50415983     1.26100
H52         H  0.33212921  0.16933684  0.46757935     0.39100
N53         N  0.39360238  0.00395715  0.71232701    -0.36600
N54         N  0.36811635  0.46011747  0.74983177    -0.57100
N55         N  0.39025535  0.00695248  0.78575034    -0.36600
N56         N  0.41446623  0.05082775  0.74847530    -0.57100
C57         C  0.37460637  0.48056190  0.69962435     0.27000
C58         C  0.39793550  0.02801906  0.69923568     0.27000
C59         C  0.37123566  0.48444757  0.79933074     0.27000
C60         C  0.39476181  0.03186300  0.79829799     0.27000
C61         C  0.36736152  0.44282651  0.73026220     0.35600
C62         C  0.36595319  0.44443286  0.77029703     0.35600
C63         C  0.43127514  0.06337654  0.72842537     0.35600
C64         C  0.42982162  0.06514393  0.76845322     0.35600
C65         C  0.36588853  0.48970774  0.67854912    -0.21800
C66         C  0.38002657  0.01990713  0.67866241    -0.21800
C67         C  0.36273804  0.49502994  0.82045988    -0.21800
C68         C  0.37722488  0.02511142  0.81960095    -0.21800
C69         C  0.36405520  0.41564524  0.73824003    -0.22900
C70         C  0.36319011  0.41667938  0.76374822    -0.22900
C71         C  0.45788916  0.08564455  0.73566302    -0.22900
C72         C  0.45699979  0.08669644  0.76115985    -0.22900
C73         C  0.36816331  0.45141578  0.70549402    -0.18200
C74         C  0.42099151  0.05590531  0.70400312    -0.18200
C75         C  0.41805811  0.05938886  0.79277957    -0.18200
C76         C  0.36518452  0.45493535  0.79456766    -0.18200
H77         H  0.35143502  0.47601724  0.66436647     0.14700
H78         H  0.37888839  0.03408419  0.66436403     0.14700
H79         H  0.34847396  0.48234383  0.83532082     0.14700
H80         H  0.37638383  0.04017595  0.83378459     0.14700
H81         H  0.36233748  0.39709073  0.72691183     0.12900
H82         H  0.36074878  0.39908595  0.77601486     0.12900
H83         H  0.47594106  0.09966671  0.72386882     0.12900
H84         H  0.47418206  0.10170591  0.77290446     0.12900
H85         H  0.40644710  0.00313592  0.72696690     0.26200
H86         H  0.40327730  0.00508295  0.77108299     0.26200
N87         N  0.11267940  0.10302598  0.71043984    -0.36600
N88         N  0.07869354  0.11526350  0.74939739    -0.57100
N89         N  0.11463829  0.10463612  0.78600158    -0.36600
N90         N  0.14726739  0.09110890  0.74702963    -0.57100
C91         C  0.09099741  0.10479355  0.69701393     0.27000
C92         C  0.12467194  0.08789296  0.69670224     0.27000
C93         C  0.09227540  0.10475681  0.80054376     0.27000
C94         C  0.12821430  0.09097698  0.79863083     0.27000
C95         C  0.06738735  0.12331409  0.72996815     0.35600
C96         C  0.06738600  0.12268570  0.76992022     0.35600
C97         C  0.16253726  0.09034498  0.72644406     0.35600
C98         C  0.16451633  0.09254065  0.76617450     0.35600
C99         C  0.09017295  0.09183336  0.67405281    -0.21800
C100        C  0.11022165  0.07993512  0.67432859    -0.21800
C101        C  0.09235401  0.09200134  0.82297944    -0.21800
C102        C  0.11414456  0.08231570  0.82140860    -0.21800
C103        C  0.04814440  0.13506096  0.73821545    -0.22900
C104        C  0.04810192  0.13461475  0.76346541    -0.22900
C105        C  0.19011591  0.09217675  0.73240482    -0.22900
C106        C  0.19137743  0.09357080  0.75774896    -0.22900
C107        C  0.07226063  0.11810587  0.70487740    -0.18200
C108        C  0.14971710  0.08309319  0.70305661    -0.18200
C109        C  0.15400829  0.08774813  0.79071976    -0.18200
C110        C  0.07254328  0.11702963  0.79440490    -0.18200
H111        H  0.07640532  0.09047407  0.65856504     0.14700
H112        H  0.11385769  0.06736451  0.65929482     0.14700
H113        H  0.07818332  0.08955185  0.83896474     0.14700
H114        H  0.11916966  0.07064891  0.83580843     0.14700
H115        H  0.03473902  0.14238127  0.72727671     0.12900
H116        H  0.03470718  0.14159272  0.77558338     0.12900
H117        H  0.20678974  0.09096019  0.71987561     0.12900
H118        H  0.20926755  0.09370421  0.76874125     0.12900
H119        H  0.12071245  0.11418579  0.72689622     0.26200
H120        H  0.12209304  0.11601636  0.76959816     0.26200
N121        N  0.00901172  0.40886917  0.78774003    -0.36600
N122        N  0.05346555  0.43302514  0.74965193    -0.57100
N123        N  0.00940750  0.40294256  0.71242156    -0.36600
N124        N  0.46515954  0.37942677  0.75052797    -0.57100
C125        C  0.03081231  0.43044783  0.80022205     0.27000
C126        C  0.48329577  0.40316791  0.80007702     0.27000
C127        C  0.03127002  0.42298449  0.69865243     0.27000
C128        C  0.48407151  0.39448109  0.69959603     0.27000
C129        C  0.07114951  0.44015054  0.76955201     0.35600
C130        C  0.07125272  0.43773902  0.72946032     0.35600
C131        C  0.45071111  0.36576602  0.77118442     0.35600
C132        C  0.45087007  0.36231522  0.73125763     0.35600
C133        C  0.01886613  0.43860352  0.82076744    -0.21800
C134        C  0.48875283  0.42206513  0.82022989    -0.21800
C135        C  0.01972424  0.42692345  0.67665279    -0.21800
C136        C  0.48984830  0.40980617  0.67767181    -0.21800
C137        C  0.10040240  0.44953471  0.76199103    -0.22900
C138        C  0.10046459  0.44799856  0.73657816    -0.22900
C139        C  0.42757163  0.33928563  0.76507206    -0.22900
C140        C  0.42762829  0.33714521  0.73968060    -0.22900
C141        C  0.06125229  0.44133064  0.79407620    -0.18200
C142        C  0.45591311  0.37929994  0.79478091    -0.18200
C143        C  0.45661971  0.37151027  0.70646454    -0.18200
C144        C  0.06153779  0.43616490  0.70489096    -0.18200
H145        H  0.03048588  0.45469991  0.83476543     0.14700
H146        H  0.47289872  0.42305165  0.83377103     0.14700
H147        H  0.03134994  0.44052862  0.66123712     0.14700
H148        H  0.47441825  0.40815010  0.66338709     0.14700
H149        H  0.11974730  0.45763538  0.77347613     0.12900
H150        H  0.11991020  0.45453975  0.72475285     0.12900
H151        H  0.41167855  0.32369444  0.77753752     0.12900
H152        H  0.41184203  0.31960653  0.72867295     0.12900
H153        H  0.01206132  0.39622683  0.77344159     0.26200
H154        H  0.01233629  0.39313635  0.72826978     0.26200
C155        C  0.01736054  0.18069632  0.59244576     0.02300
C156        C  0.48637450  0.17172612  0.59289516     0.02300
C157        C  0.46902842  0.15286503  0.61158332    -0.18200
C158        C  0.48184586  0.14317305  0.63000110     0.02300
C159        C  0.01288426  0.15324279  0.63034184     0.02300
C160        C  0.03012920  0.17195458  0.61170205    -0.18200
H161        H  0.05393705  0.17949343  0.61200732     0.04300
H162        H  0.44518275  0.14510201  0.61145809     0.04300
C163        C  0.18622652  0.00660587  0.58452591     0.02300
C164        C  0.16658598  0.47664689  0.58460674     0.02300
C165        C  0.14625597  0.46601378  0.60434281    -0.18200
C166        C  0.14612881  0.48411726  0.62441205     0.02300
C167        C  0.16738797  0.01379201  0.62488699     0.02300
C168        C  0.18751235  0.02407203  0.60519497    -0.18200
H169        H  0.20446673  0.04634546  0.60570730     0.04300
H170        H  0.13068194  0.44316652  0.60432649     0.04300
C171        C  0.33972572  0.32787381  0.90737868     0.02300
C172        C  0.32274062  0.34439893  0.90925545     0.02300
C173        C  0.32649464  0.36549662  0.89129696    -0.18200
C174        C  0.34594225  0.37006813  0.87105549     0.02300
C175        C  0.36182006  0.35248889  0.86847602     0.02300
C176        C  0.35794221  0.33140585  0.88645160    -0.18200
H177        H  0.36977764  0.31772563  0.88432514     0.04300
H178        H  0.31432223  0.37887046  0.89333073     0.04300
C179        C  0.34549288  0.32217592  0.59137880     0.02300
C180        C  0.33228007  0.34205964  0.58975707     0.02300
C181        C  0.33770758  0.36352644  0.60820575    -0.18200
C182        C  0.35580000  0.36599285  0.62835541     0.02300
C183        C  0.36857501  0.34569194  0.63059956     0.02300
C184        C  0.36366894  0.32460781  0.61164650    -0.18200
H185        H  0.37409026  0.30968659  0.61269308     0.04300
H186        H  0.32703723  0.37826562  0.60716405     0.04300
C187        C  0.17474850  0.48958800  0.90784060     0.02300
C188        C  0.19617719  0.01854001  0.90488637     0.02300
C189        C  0.19735744  0.03307177  0.88294854    -0.18200
C190        C  0.17603336  0.02082505  0.86464762     0.02300
C191        C  0.15276071  0.49234416  0.86819019     0.02300
C192        C  0.15295836  0.47715541  0.88974047    -0.18200
H193        H  0.13576999  0.45537071  0.89266625     0.04300
H194        H  0.21430558  0.05520546  0.88079745     0.04300
C195        C  0.01229446  0.17739687  0.91017890     0.02300
C196        C  0.48100215  0.16756159  0.90977309     0.02300
C197        C  0.46497735  0.14821174  0.89087619    -0.18200
C198        C  0.47915050  0.13964177  0.87186502     0.02300
C199        C  0.01027280  0.15036748  0.87160927     0.02300
C200        C  0.02627342  0.16899875  0.89071366    -0.18200
H201        H  0.05016697  0.17746476  0.89014926     0.04300
H202        H  0.44104815  0.13949993  0.89102040     0.04300
O203        O  0.11572098  0.34690422  0.47402422    -0.80800
O204        O  0.22920791  0.35294198  0.52343152    -0.65500
O205        O  0.16777784  0.33884730  0.47685266    -1.12100
C206        C  0.11197221  0.26208071  0.53282241     1.06000
O207        O  0.21778665  0.30578792  0.52014427    -0.78700
O208        O  0.16971202  0.26141686  0.50174677    -0.66300
Ni209      Ni  0.15703303  0.36845219  0.46593055     1.34900
C210        C  0.15818918  0.26141504  0.48115202     0.84800
O211        O  0.22713659  0.38109194  0.48097775    -0.79300
O212        O  0.19725176  0.39257221  0.45723160    -0.89600
C213        C  0.23439713  0.33093691  0.52855169     0.84400
O214        O  0.16125209  0.38915428  0.49615894    -0.67800
O215        O  0.13673406  0.26460115  0.54113239    -0.87000
C216        C  0.17477870  0.39074795  0.51601871     0.85200
C217        C  0.22290942  0.39723231  0.46480900     1.06800
H218        H  0.16320796  0.32480866  0.53249028     0.38600
O219        O  0.16891849  0.31661917  0.51813856    -1.09700
O220        O  0.14754405  0.27947456  0.47592329    -0.66400
Ni221      Ni  0.13834649  0.30741575  0.49504886     1.26300
O222        O  0.18946268  0.37580664  0.51982266    -0.66600
O223        O  0.10955855  0.27666009  0.51465639    -0.78900
C224        C  0.09995980  0.32066536  0.46760247     0.84600
O225        O  0.10850228  0.30083699  0.47146102    -0.66100
Ni226      Ni  0.17720849  0.28593253  0.53037043     1.27400
Ni227      Ni  0.19887555  0.34831375  0.49999182     1.26100
H228        H  0.17334587  0.33093457  0.46221921     0.39100
O229        O  0.19150078  0.28061663  0.02302767    -0.80800
O230        O  0.19230518  0.38852001  0.97223052    -0.65500
O231        O  0.17897719  0.32857917  0.01937698    -1.12100
C232        C  0.10007693  0.27214525  0.96532905     1.06000
O233        O  0.14483351  0.37759768  0.97374249    -0.78700
O234        O  0.10279145  0.33044159  0.99439956    -0.66300
Ni235      Ni  0.21049375  0.32137615  0.03180543     1.34900
C236        C  0.10214929  0.31940576  0.01536797     0.84800
O237        O  0.21707037  0.38800816  0.01570275    -0.79300
O238        O  0.23142633  0.36182036  0.04133645    -0.89600
C239        C  0.17101098  0.39512249  0.96775064     0.84400
O240        O  0.23427892  0.32789544  0.00266212    -0.67800
O241        O  0.10476660  0.29668313  0.95585555    -0.87000
C242        C  0.23439164  0.33949069  0.98211084     0.85200
C243        C  0.23250216  0.38598844  0.03344509     1.06800
H244        H  0.16564645  0.32312811  0.96369291     0.38600
O245        O  0.15674318  0.32843234  0.97782030    -1.09700
O246        O  0.11914989  0.30731526  0.02072024    -0.66400
Ni247      Ni  0.14774483  0.29817703  0.00162001     1.26300
O248        O  0.21691464  0.35116078  0.97721692    -0.66600
O249        O  0.11549161  0.26922330  0.98288309    -0.78900
C250        C  0.16583424  0.26331279  0.03056560     0.84600
O251        O  0.14360797  0.26861253  0.02571274    -0.66100
Ni252      Ni  0.12611699  0.33670911  0.96516219     1.27400
Ni253      Ni  0.18721370  0.35877114  0.99597202     1.26100
H254        H  0.17030981  0.33385910  0.03370790     0.39100
N255        N  0.48962167  0.10363096  0.21004808    -0.36600
N256        N  0.03193358  0.11711466  0.24898363    -0.57100
N257        N  0.48341974  0.10270195  0.28517410    -0.36600
N258        N  0.44168828  0.09353094  0.24596878    -0.57100
C259        C  0.01537235  0.11652558  0.19708763     0.27000
C260        C  0.46778556  0.10254257  0.19523692     0.27000
C261        C  0.00745905  0.11560266  0.29967612     0.27000
C262        C  0.45932624  0.10032363  0.29877217     0.27000
C263        C  0.04802073  0.11398033  0.22962952     0.35600
C264        C  0.04505807  0.11416077  0.26963202     0.35600
C265        C  0.42550094  0.08567845  0.22511014     0.35600
C266        C  0.42213725  0.08565653  0.26524241     0.35600
C267        C  0.00971175  0.12436493  0.17399323    -0.21800
C268        C  0.47958829  0.11496257  0.17267052    -0.21800
C269        C  0.99862000  0.12216891  0.32249690    -0.21800
C270        C  0.46844764  0.11162810  0.32230282    -0.21800
C271        C  0.07124331  0.10863255  0.23801640    -0.22900
C272        C  0.06941391  0.10886701  0.26341093    -0.22900
C273        C  0.39569018  0.07455656  0.23121029    -0.22900
C274        C  0.39357326  0.07502275  0.25649279    -0.22900
C275        C  0.04311059  0.11830581  0.20469609    -0.18200
C276        C  0.43726455  0.08816144  0.20067565    -0.18200
C277        C  0.42947750  0.08699108  0.29063726    -0.18200
C278        C  0.03650921  0.11849477  0.29390534    -0.18200
H279        H  0.02548226  0.13489630  0.15926956     0.14700
H280        H  0.46762474  0.11682919  0.15686826     0.14700
H281        H  0.01228531  0.13254045  0.33820003     0.14700
H282        H  0.45558175  0.11263031  0.33820528     0.14700
H283        H  0.08799961  0.10554195  0.22694473     0.12900
H284        H  0.08441472  0.10597827  0.27597660     0.12900
H285        H  0.37715776  0.06640884  0.21887558     0.12900
H286        H  0.37316823  0.06743910  0.26718756     0.12900
H287        H  0.48647148  0.09225909  0.22646122     0.26200
H288        H  0.48293612  0.09256634  0.26820608     0.26200
N289        N  0.40387291  0.40208886  0.28966844    -0.36600
N290        N  0.41990731  0.37642302  0.24841142    -0.57100
N291        N  0.40170719  0.40944639  0.21606940    -0.36600
N292        N  0.38468285  0.43537256  0.25724902    -0.57100
C293        C  0.42124320  0.39081214  0.29973110     0.27000
C294        C  0.40408321  0.42372911  0.30482745     0.27000
C295        C  0.42223716  0.40495306  0.20221135     0.27000
C296        C  0.39880948  0.43251938  0.20657445     0.27000
C297        C  0.41841349  0.35716228  0.26578837     0.35600
C298        C  0.42031458  0.36387772  0.22639031     0.35600
C299        C  0.37267830  0.43832769  0.27905997     0.35600
C300        C  0.36814277  0.43901582  0.23938247     0.35600
C301        C  0.43335948  0.40601818  0.32128954    -0.21800
C302        C  0.42182429  0.42625412  0.32489063    -0.21800
C303        C  0.43327440  0.42618292  0.18406558    -0.21800
C304        C  0.41796149  0.44335391  0.18657878    -0.21800
C305        C  0.41665833  0.33142956  0.25476604    -0.22900
C306        C  0.41792478  0.33574310  0.22957598    -0.22900
C307        C  0.34817571  0.44395994  0.27503480    -0.22900
C308        C  0.34483684  0.44354439  0.24980648    -0.22900
C309        C  0.42360826  0.36530430  0.29084464    -0.18200
C310        C  0.38558964  0.43820325  0.30202252    -0.18200
C311        C  0.37652929  0.44110478  0.21418795    -0.18200
C312        C  0.42839249  0.38024610  0.20454918    -0.18200
H313        H  0.44782916  0.40204596  0.33376504     0.14700
H314        H  0.42544446  0.44041137  0.34089664     0.14700
H315        H  0.44989328  0.42856582  0.17002017     0.14700
H316        H  0.42025966  0.46139655  0.17490261     0.14700
H317        H  0.41618998  0.31231426  0.26386173     0.12900
H318        H  0.41884632  0.32075040  0.21535940     0.12900
H319        H  0.33427330  0.44833839  0.28857872     0.12900
H320        H  0.32803005  0.44744465  0.24030995     0.12900
H321        H  0.38936756  0.39280064  0.27515384     0.26200
H322        H  0.38739221  0.39522552  0.22915175     0.26200
C323        C  0.31884847  0.02263382  0.40844394     0.02300
C324        C  0.31496813  0.49370194  0.41281632     0.02300
C325        C  0.32987884  0.48176228  0.39744279    -0.18200
C326        C  0.34575619  0.49631690  0.37639629     0.02300
C327        C  0.34781531  0.02470661  0.37064174     0.02300
C328        C  0.33305106  0.03663153  0.38658191    -0.18200
H329        H  0.33326163  0.05761228  0.38248115     0.04300
H330        H  0.32775673  0.45988261  0.40111740     0.04300
N331        N  0.10224280  0.48797773  0.28845547    -0.36600
N332        N  0.12730556  0.03476105  0.25210697    -0.57100
N333        N  0.11264268  0.49052549  0.21470837    -0.36600
N334        N  0.09002503  0.44371701  0.25056910    -0.57100
C335        C  0.11608311  0.01181120  0.30298203     0.27000
C336        C  0.09680044  0.46412236  0.30232651     0.27000
C337        C  0.13109443  0.01437994  0.20210698     0.27000
C338        C  0.10988670  0.46689741  0.20107129     0.27000
C339        C  0.12394584  0.04995328  0.27179346     0.35600
C340        C  0.12967668  0.05112395  0.23195935     0.35600
C341        C  0.07547918  0.42634035  0.26966198     0.35600
C342        C  0.07952451  0.42782844  0.22975568     0.35600
C343        C  0.11988192  0.00301623  0.32628013    -0.21800
C344        C  0.10753080  0.47287566  0.32589389    -0.21800
C345        C  0.14106475  0.00563627  0.18066991    -0.21800
C346        C  0.12714720  0.47557732  0.17979125    -0.21800
C347        C  0.12463822  0.07631642  0.26422330    -0.22900
C348        C  0.12776515  0.07684816  0.23892548    -0.22900
C349        C  0.05640590  0.39894536  0.26096831    -0.22900
C350        C  0.05923772  0.39985542  0.23564625    -0.22900
C351        C  0.12189956  0.04085512  0.29655279    -0.18200
C352        C  0.08005249  0.43478348  0.29481236    -0.18200
C353        C  0.08860860  0.43833982  0.20561367    -0.18200
C354        C  0.13504884  0.04331335  0.20769677    -0.18200
H355        H  0.12959632  0.01685779  0.34215662     0.14700
H356        H  0.10604111  0.45896562  0.34133232     0.14700
H357        H  0.15549153  0.01952163  0.16643570     0.14700
H358        H  0.12867934  0.46168420  0.16484708     0.14700
H359        H  0.12344668  0.09351790  0.27575281     0.12900
H360        H  0.12924847  0.09449017  0.22714559     0.12900
H361        H  0.04203255  0.38025311  0.27169447     0.12900
H362        H  0.04797658  0.38186493  0.22303949     0.12900
H363        H  0.09324318  0.48799646  0.27133263     0.26200
H364        H  0.09852356  0.49028601  0.22924438     0.26200
C365        C  0.31209686  0.48062558  0.09261063     0.02300
C366        C  0.32792700  0.01068624  0.08836144     0.02300
C367        C  0.34917802  0.02816977  0.10526760    -0.18200
C368        C  0.35514737  0.01633794  0.12650179     0.02300
C369        C  0.33814356  0.48600900  0.13145599     0.02300
C370        C  0.31633029  0.46898747  0.11464871    -0.18200
H371        H  0.30267160  0.44614775  0.11847914     0.04300
H372        H  0.36122868  0.05140529  0.10180651     0.04300
C373        C  0.14401809  0.16801330  0.41169595     0.02300
C374        C  0.16082890  0.15128666  0.41222440     0.02300
C375        C  0.15674812  0.13029422  0.39351089    -0.18200
C376        C  0.13620962  0.12531076  0.37474017     0.02300
C377        C  0.11870409  0.14120016  0.37472399     0.02300
C378        C  0.12304888  0.16260732  0.39305580    -0.18200
H379        H  0.11015433  0.17532263  0.39272553     0.04300
H380        H  0.17018652  0.11810163  0.39320905     0.04300
C381        C  0.15934394  0.16658765  0.09143908     0.02300
C382        C  0.17837137  0.15193038  0.09138369     0.02300
C383        C  0.17393883  0.13080334  0.10958853    -0.18200
C384        C  0.15261946  0.12508676  0.12839841     0.02300
C385        C  0.13377872  0.13947032  0.12845759     0.02300
C386        C  0.13719814  0.15981515  0.10996268    -0.18200
H387        H  0.12282061  0.17101845  0.11034184     0.04300
H388        H  0.18733495  0.11857339  0.10920621     0.04300
C389        C  0.01172568  0.31530354  0.40120552     0.02300
C390        C  0.48130082  0.29777550  0.39797216     0.02300
C391        C  0.46777233  0.30213328  0.37698129    -0.18200
C392        C  0.48319553  0.32437911  0.35995112     0.02300
C393        C  0.01352954  0.34275474  0.36393873     0.02300
C394        C  0.02744045  0.33729269  0.38413680    -0.18200
H395        H  0.05077211  0.35077755  0.38695019     0.04300
H396        H  0.44434720  0.28887012  0.37449905     0.04300
C397        C  0.49099954  0.32490293  0.08689606     0.02300
C398        C  0.02221787  0.33684229  0.08617047     0.02300
C399        C  0.03837204  0.35725154  0.10421141    -0.18200
C400        C  0.02436718  0.36498297  0.12396385     0.02300
C401        C  0.49290665  0.35309794  0.12481176     0.02300
C402        C  0.47690437  0.33292844  0.10640800    -0.18200
H403        H  0.45298030  0.32236783  0.10777188     0.04300
H404        H  0.06232595  0.36691175  0.10305002     0.04300
C405        C  0.04206466  0.41429776  0.32835363    -0.09100
C406        C  0.06506357  0.41236914  0.31411510     0.07100
C407        C  0.07252047  0.38875681  0.31788162    -0.02900
C408        C  0.05598770  0.36683318  0.33465731    -0.07300
C409        C  0.03160950  0.36767658  0.34762562     0.06200
C410        C  0.02564364  0.39245292  0.34523441    -0.02300
Br411      Br  0.49678353  0.39853396  0.36563502    -0.02000
H412        H  0.03671868  0.43281840  0.32615809     0.10100
H413        H  0.06152665  0.34845217  0.33697328     0.08100
Br414      Br  0.10488184  0.38539549  0.30047135    -0.02500
C415        C  0.03935788  0.41032954  0.14994493    -0.09100
C416        C  0.04320338  0.38505627  0.14345792     0.07100
C417        C  0.06337326  0.37816525  0.15697967    -0.02900
C418        C  0.07839521  0.39592366  0.17688119    -0.07300
C419        C  0.07331854  0.42024017  0.18397497     0.06200
C420        C  0.05359095  0.42740635  0.17036332    -0.02300
Br421      Br  0.54369760  0.45906462  0.18005843    -0.02000
H422        H  0.52405943  0.41596525  0.13981838     0.10100
H423        H  0.09355441  0.39035504  0.18727397     0.08100
Br424      Br  0.06986497  0.34372844  0.15056833    -0.02500
C425        C  0.15211816  0.08800630  0.31833410    -0.09100
C426        C  0.12561620  0.06249861  0.31673282     0.07100
C427        C  0.10288969  0.05795740  0.33432503    -0.02900
C428        C  0.10769110  0.07762330  0.35393678    -0.07300
C429        C  0.13356107  0.10357985  0.35507431     0.06200
C430        C  0.15586658  0.10889697  0.33692729    -0.02300
Br431      Br  0.19103181  0.14482789  0.33611301    -0.02000
H432        H  0.16960072  0.09198198  0.30470657     0.10100
H433        H  0.09075419  0.07292356  0.36802772     0.08100
Br434      Br  0.06405010  0.02675989  0.33137038    -0.02500
C435        C  0.12543770  0.05535044  0.16505322    -0.09100
C436        C  0.14180529  0.06459606  0.18690185     0.07100
C437        C  0.16443955  0.09340173  0.18796324    -0.02900
C438        C  0.16734079  0.11314735  0.16904950    -0.07300
C439        C  0.15016660  0.10378573  0.14776141     0.06200
C440        C  0.13109830  0.07407651  0.14503326    -0.02300
Br441      Br  0.11541632  0.05743717  0.11355782    -0.02000
H442        H  0.10885937  0.03306030  0.16313201     0.10100
H443        H  0.18364120  0.13561755  0.17057844     0.08100
Br444      Br  0.19348062  0.10609458  0.21345674    -0.02500
C445        C  0.43997625  0.33317781  0.34807198    -0.09100
C446        C  0.46571831  0.33015383  0.34061074     0.07100
C447        C  0.47406498  0.33342058  0.31540053    -0.02900
C448        C  0.45995081  0.34452618  0.29929013    -0.07300
C449        C  0.43548618  0.34961330  0.30726524     0.06200
C450        C  0.42427908  0.34172274  0.33149615    -0.02300
Br451      Br  0.38799062  0.34256530  0.34325477    -0.02000
H452        H  0.43236227  0.32960837  0.36714294     0.10100
H453        H  0.46833460  0.34939424  0.28050187     0.08100
Br454      Br  0.50228420  0.32060619  0.30142518    -0.02500
C455        C  0.48355984  0.35889226  0.16993282    -0.09100
C456        C  0.47589407  0.35969191  0.14521396     0.07100
C457        C  0.45192656  0.36677433  0.14043180    -0.02900
C458        C  0.43550687  0.37112770  0.15998778    -0.07300
C459        C  0.44452872  0.37230016  0.18444354     0.06200
C460        C  0.46967712  0.36735325  0.18917261    -0.02300
Br461      Br  0.48816769  0.37527509  0.22080269    -0.02000
H462        H  0.00143738  0.35312467  0.17432360     0.10100
H463        H  0.41649710  0.37532106  0.15595752     0.08100
Br464      Br  0.44203070  0.37408725  0.10802187    -0.02500
C465        C  0.34837285  0.43805625  0.33278898    -0.09100
C466        C  0.37754619  0.45140069  0.32395444     0.07100
C467        C  0.39743838  0.47789968  0.33483543    -0.02900
C468        C  0.38736015  0.49112839  0.35352453    -0.07300
C469        C  0.35724651  0.47948867  0.36010548     0.06200
C470        C  0.33774675  0.45232665  0.34988714    -0.02300
Br471      Br  0.29569961  0.43519873  0.35590781    -0.02000
H472        H  0.33313478  0.41749107  0.32475324     0.10100
H473        H  0.40250377  0.51177729  0.36147269     0.08100
Br474      Br  0.43760744  0.49846687  0.32336902    -0.02500
C475        C  0.34658282  0.48573998  0.17676044    -0.09100
C476        C  0.34274723  0.47152630  0.15370960     0.07100
C477        C  0.34608971  0.44500272  0.15204893    -0.02900
C478        C  0.35380216  0.43414309  0.17288592    -0.07300
C479        C  0.36173248  0.45063217  0.19486666     0.06200
C480        C  0.35838911  0.47695574  0.19641867    -0.02300
Br481      Br  0.37513337  0.50491550  0.22211223    -0.02000
H482        H  0.34332857  0.00557230  0.17881420     0.10100
H483        H  0.35634622  0.41387543  0.17119186     0.08100
Br484      Br  0.34543010  0.42452021  0.12163085    -0.02500
C485        C  0.36490748  0.02841937  0.32602435    -0.09100
C486        C  0.36529189  0.04243416  0.34880009     0.07100
C487        C  0.38356229  0.07305693  0.35025427    -0.02900
C488        C  0.40066161  0.08780727  0.32968119    -0.07300
C489        C  0.40489224  0.07228940  0.30931971     0.06200
C490        C  0.38643496  0.04203457  0.30777361    -0.02300
Br491      Br  0.39180374  0.01714045  0.28299844    -0.02000
H492        H  0.34969070  0.50581930  0.32314346     0.10100
H493        H  0.41262790  0.11137312  0.33053398     0.08100
Br494      Br  0.39025187  0.09612328  0.38012152    -0.02500
C495        C  0.42180491  0.04892212  0.16840639    -0.09100
C496        C  0.41752664  0.07216306  0.17984661     0.07100
C497        C  0.39507322  0.07933177  0.17113861    -0.02900
C498        C  0.37523448  0.06120307  0.15353609    -0.07300
C499        C  0.37831538  0.03668130  0.14336077     0.06200
C500        C  0.40307441  0.03187313  0.14980586    -0.02300
Br501      Br  0.41288153  0.00313797  0.13313477    -0.02000
H502        H  0.43988322  0.04399601  0.17402845     0.10100
H503        H  0.35712400  0.06608766  0.14795273     0.08100
Br504      Br  0.39144500  0.11410808  0.18204821    -0.02500
C505        C  0.04975673  0.10758057  0.33582579    -0.09100
C506        C  0.05821228  0.12494460  0.31450210     0.07100
C507        C  0.08639724  0.14896214  0.31391913    -0.02900
C508        C  0.10582853  0.15388693  0.33360157    -0.07300
C509        C  0.09699239  0.13663104  0.35487109     0.06200
C510        C  0.06804276  0.11438839  0.35637029    -0.02300
Br511      Br  0.05165606  0.09403186  0.38653891    -0.02000
H512        H  0.02812773  0.08938966  0.33697375     0.10100
H513        H  0.12775669  0.17162993  0.33253046     0.08100
Br514      Br  0.09887732  0.17691807  0.28768128    -0.02500
C515        C  0.06082270  0.10628821  0.16404394    -0.09100
C516        C  0.06717991  0.12373573  0.18562533     0.07100
C517        C  0.09575372  0.14684670  0.18788785    -0.02900
C518        C  0.11737896  0.15102403  0.16948706    -0.07300
C519        C  0.11062175  0.13383185  0.14789866     0.06200
C520        C  0.08172289  0.11212344  0.14484832    -0.02300
Br521      Br  0.06886559  0.09195765  0.11399191    -0.02000
H522        H  0.03895895  0.08884760  0.16160402     0.10100
H523        H  0.13931030  0.16846492  0.17161076     0.08100
Br524      Br  0.10591968  0.17501810  0.21441351    -0.02500
C525        C  0.18741356  0.24048528  0.05982227    -0.09100
C526        C  0.16330315  0.23743276  0.04513269     0.07100
C527        C  0.13854282  0.21006560  0.04467904    -0.02900
C528        C  0.13829965  0.18680480  0.05885106    -0.07300
C529        C  0.16235212  0.19016268  0.07376470     0.06200
C530        C  0.18692546  0.21753105  0.07425903    -0.02300
Br531      Br  0.21907060  0.22591983  0.09632359    -0.02000
H532        H  0.20654854  0.26135651  0.06081894     0.10100
H533        H  0.11894988  0.16606541  0.05860944     0.08100
Br534      Br  0.10496041  0.20293229  0.02461201    -0.02500
C535        C  0.05183971  0.30989464  0.07244539    -0.09100
C536        C  0.03926565  0.32922173  0.06689224     0.07100
C537        C  0.04723600  0.34479640  0.04477217    -0.02900
C538        C  0.06736796  0.34088629  0.02850989    -0.07300
C539        C  0.08046883  0.32171646  0.03382972     0.06200
C540        C  0.07215462  0.30585172  0.05616680    -0.02300
Br541      Br  0.08730071  0.27846429  0.06590822    -0.02000
H542        H  0.04632758  0.29841916  0.08986556     0.10100
H543        H  0.07330667  0.35371166  0.01179694     0.08100
Br544      Br  0.03296120  0.37343054  0.03689601    -0.02500
C545        C  0.26299321  0.45509351  0.07274247    -0.09100
C546        C  0.29280345  0.46013084  0.07390114     0.07100
C547        C  0.30294898  0.44225773  0.05986809    -0.02900
C548        C  0.28309353  0.41880531  0.04609043    -0.07300
C549        C  0.25309437  0.41300009  0.04568299     0.06200
C550        C  0.24312458  0.43173352  0.05863252    -0.02300
Br551      Br  0.20215008  0.42436743  0.05964404    -0.02000
H552        H  0.25491061  0.46843176  0.08375857     0.10100
H553        H  0.29097796  0.40459990  0.03608156     0.08100
Br554      Br  0.34349531  0.44811841  0.05975288    -0.02500
C555        C  0.14305233  0.20899087  0.47110627    -0.09100
C556        C  0.15569696  0.23814409  0.46311597     0.07100
C557        C  0.16484465  0.24406334  0.43823051    -0.02900
C558        C  0.16111173  0.22095568  0.42183965    -0.07300
C559        C  0.14830775  0.19181634  0.42984293     0.06200
C560        C  0.13896397  0.18590456  0.45466228    -0.02300
Br561      Br  0.11859909  0.14671960  0.46655418    -0.02000
H562        H  0.13547549  0.20409169  0.49010874     0.10100
H563        H  0.16836146  0.22571830  0.40276006     0.08100
Br564      Br  0.18386935  0.28325589  0.42607727    -0.02500
C565        C  0.06576301  0.29496064  0.43399851    -0.09100
C566        C  0.07230336  0.31390844  0.45452088     0.07100
C567        C  0.05497166  0.32944314  0.45958261    -0.02900
C568        C  0.03384439  0.32837080  0.44267059    -0.07300
C569        C  0.02864044  0.31083893  0.42134116     0.06200
C570        C  0.04420896  0.29346987  0.41736572    -0.02300
Br571      Br  0.03936517  0.27025107  0.38791767    -0.02000
H572        H  0.07896626  0.28298546  0.42982643     0.10100
H573        H  0.02249360  0.34234851  0.44561225     0.08100
Br574      Br  0.05923122  0.35243668  0.48916869    -0.02500
C575        C  0.30003584  0.45597173  0.44619120    -0.09100
C576        C  0.29238453  0.47348082  0.43036013     0.08300
C577        C  0.26222478  0.46630091  0.42708271    -0.02900
C578        C  0.24072876  0.44231100  0.43921643    -0.07300
C579        C  0.24801211  0.42363326  0.45409322     0.06200
C580        C  0.27836169  0.43111661  0.45774145    -0.02300
Br581      Br  0.29213757  0.40739102  0.47624016    -0.02000
H582        H  0.32312099  0.46061189  0.44832568     0.10100
H583        H  0.21786246  0.43764121  0.43588417     0.08100
Br584      Br  0.24846285  0.48528602  0.40326503    -0.02500
C585        C  0.02900415  0.22533031  0.93215161    -0.09100
C586        C  0.03173059  0.19902672  0.92855104     0.07100
C587        C  0.05549384  0.19573350  0.93987041    -0.02900
C588        C  0.07688721  0.21922241  0.95282741    -0.07300
C589        C  0.07514781  0.24619982  0.95488126     0.06200
C590        C  0.04996305  0.24853256  0.94541819    -0.02300
Br591      Br  0.04216383  0.28255737  0.95001887    -0.02000
H592        H  0.01109922  0.22842424  0.92369356     0.10100
H593        H  0.09555486  0.21671956  0.96044033     0.08100
Br594      Br  0.06040938  0.15995954  0.93793387    -0.02500
C595        C  0.20093581  0.46329127  0.92730127    -0.09100
C596        C  0.17662930  0.47045709  0.92758707     0.07100
C597        C  0.15253815  0.45522851  0.94351737    -0.02900
C598        C  0.15229137  0.43217429  0.95760617    -0.07300
C599        C  0.17554703  0.42326440  0.95593697     0.06200
C600        C  0.20059838  0.43988349  0.94111924    -0.02300
Br601      Br  0.23371760  0.43025275  0.93658229    -0.02000
H602        H  0.21943104  0.47460226  0.91483407     0.10100
H603        H  0.13303366  0.42032756  0.96916370     0.08100
Br604      Br  0.11877582  0.46413872  0.94582160    -0.02500
C605        C  0.28668292  0.35886188  0.54206603    -0.09100
C606        C  0.25983443  0.33382410  0.54379555     0.07100
C607        C  0.25775653  0.31122749  0.55993614    -0.02900
C608        C  0.28237508  0.31352687  0.57313844    -0.07300
C609        C  0.30912719  0.33853652  0.57155081     0.06200
C610        C  0.31110951  0.36149192  0.55594115    -0.02300
Br611      Br  0.34648843  0.39702124  0.55310596    -0.02000
H612        H  0.28867045  0.37646743  0.52995213     0.10100
H613        H  0.28008565  0.29639957  0.58593574     0.08100
Br614      Br  0.22108471  0.27827475  0.56736616    -0.02500
C615        C  0.27043530  0.32975276  0.92214284    -0.09100
C616        C  0.30019425  0.34025382  0.92893955     0.07100
C617        C  0.30797274  0.34990151  0.95339447    -0.02900
C618        C  0.28616217  0.34929304  0.97043915    -0.07300
C619        C  0.25653569  0.33962973  0.96342488     0.06200
C620        C  0.24865959  0.32923204  0.93914980    -0.02300
Br621      Br  0.20837127  0.31261315  0.92873514    -0.02000
H622        H  0.26420389  0.32225512  0.90335844     0.10100
H623        H  0.29249220  0.35711609  0.98913714     0.08100
Br624      Br  0.34819221  0.36595586  0.96393712    -0.02500
C625        C  0.19445411  0.45021084  0.56572554    -0.09100
C626        C  0.16884481  0.45530468  0.56636199     0.07100
C627        C  0.14472268  0.43752427  0.55179293    -0.02900
C628        C  0.14694834  0.41603865  0.53632391    -0.07300
C629        C  0.17286166  0.41142969  0.53506227     0.06200
C630        C  0.19676007  0.42867284  0.55018765    -0.02300
Br631      Br  0.23359302  0.42513547  0.54957788    -0.02000
H632        H  0.21262855  0.46273455  0.57770031     0.10100
H633        H  0.12824951  0.40295373  0.52498174     0.08100
Br634      Br  0.10830616  0.94178870  0.55197605    -0.02500
C635        C  0.08197166  0.21184840  0.54743906    -0.09100
C636        C  0.08478981  0.24048075  0.54476488     0.07100
C637        C  0.06249450  0.24800219  0.55469955    -0.02900
C638        C  0.03933118  0.22765869  0.56896603    -0.07300
C639        C  0.03757960  0.19951267  0.57292810     0.06200
C640        C  0.05842773  0.19129874  0.56093835    -0.02300
Br641      Br  0.05616676  0.15236193  0.56271352    -0.02000
H642        H  0.09846320  0.20553781  0.53923725     0.10100
H643        H  0.02362241  0.23438790  0.57806138     0.08100
Br644      Br  0.06406198  0.28642035  0.55123833    -0.02500
C645        C  0.40285539  0.36619992  0.80641642    -0.09100
C646        C  0.43121799  0.36999541  0.81356523     0.07100
C647        C  0.43531905  0.36485362  0.83845214    -0.02900
C648        C  0.41285251  0.36033937  0.85591460    -0.07300
C649        C  0.38474548  0.35716599  0.84882960     0.06200
C650        C  0.37932193  0.35770246  0.82345247    -0.02300
Br651      Br  0.34019054  0.34294317  0.81055710    -0.02000
H652        H  0.39863445  0.36878876  0.78728438     0.10100
H653        H  0.41720888  0.35852226  0.87516431     0.08100
Br654      Br  0.46998487  0.36146283  0.84961526    -0.02500
C655        C  0.09744751  0.43777262  0.82326746    -0.09100
C656        C  0.08346375  0.45431581  0.81394061     0.07100
C657        C  0.09145960  0.48291065  0.82307937    -0.02900
C658        C  0.11248989  0.49415890  0.84175843    -0.07300
C659        C  0.12780513  0.47826490  0.85034183     0.06200
C660        C  0.11966717  0.44947210  0.84090994    -0.02300
Br661      Br  0.13963458  0.42565099  0.84927828    -0.02000
H662        H  0.09171193  0.41587201  0.81609035     0.10100
H663        H  0.11767584  0.51593687  0.84891761     0.08100
Br664      Br  0.07546728  0.50786278  0.80943464    -0.02500
C665        C  0.10145100  0.43518107  0.67694859    -0.09100
C666        C  0.08377121  0.44928459  0.68474786     0.07100
C667        C  0.08693189  0.47508791  0.67287539    -0.02900
C668        C  0.10577487  0.48497936  0.65227009    -0.07300
C669        C  0.12396234  0.47122702  0.64468926     0.06200
C670        C  0.12212717  0.44645980  0.65767882    -0.02300
Br671      Br  0.14905621  0.42877994  0.65154112    -0.02000
H672        H  0.09969147  0.41574102  0.68638195     0.10100
H673        H  0.10730327  0.00433723  0.64285223     0.08100
Br674      Br  0.06681432  0.99807804  0.68475461    -0.02500
C675        C  0.40419248  0.35794518  0.69403072    -0.09100
C676        C  0.43234592  0.35948653  0.68790593     0.07100
C677        C  0.43709264  0.35095327  0.66378131    -0.02900
C678        C  0.41615432  0.34647643  0.64550863    -0.07300
C679        C  0.38878112  0.34716336  0.65124919     0.06200
C680        C  0.38196472  0.34978763  0.67641850    -0.02300
Br681      Br  0.34235132  0.33858008  0.68860758    -0.02000
H682        H  0.39921056  0.36272720  0.71271664     0.10100
H683        H  0.42153263  0.34273915  0.62664971     0.08100
Br684      Br  0.47133392  0.34439990  0.65489727    -0.02500
C685        C  0.06429224  0.15471947  0.81947513    -0.09100
C686        C  0.05670361  0.12496930  0.81469304     0.07100
C687        C  0.03373988  0.10372190  0.82855399    -0.02900
C688        C  0.02046178  0.11253281  0.84796489    -0.07300
C689        C  0.02668887  0.14212590  0.85193292     0.06200
C690        C  0.04882980  0.16338583  0.83729709    -0.02300
Br691      Br  0.05785757  0.20429568  0.83986478    -0.02000
H692        H  0.08155265  0.17121997  0.80854255     0.10100
H693        H  0.50496431  0.09600702  0.85977653     0.08100
Br694      Br  0.01853954  0.06257994  0.82111055    -0.02500
C695        C  0.16857201  0.04777857  0.80143818    -0.09100
C696        C  0.16761710  0.07452486  0.80792948     0.07100
C697        C  0.17609367  0.08615470  0.83177438    -0.02900
C698        C  0.17916869  0.06847491  0.84991312    -0.07300
C699        C  0.17698324  0.04029852  0.84406835     0.06200
C700        C  0.17482982  0.03144027  0.81908456    -0.02300
Br701      Br  0.18074150  0.99787175  0.80813209    -0.02000
H702        H  0.16358211  0.03913285  0.78279919     0.10100
H703        H  0.18231036  0.07649163  0.86881656     0.08100
Br704      Br  0.18152542  0.12513030  0.84077774    -0.02500
C705        C  0.16932179  0.08016888  0.66096273    -0.09100
C706        C  0.16180240  0.06846192  0.68470101     0.07100
C707        C  0.16180142  0.04100307  0.68937123    -0.02900
C708        C  0.16763686  0.02538538  0.67004928    -0.07300
C709        C  0.16928893  0.03455615  0.64549103     0.06200
C710        C  0.17093268  0.06284353  0.64112450    -0.02300
Br711      Br  0.17036733  0.07785176  0.60884071    -0.02000
H712        H  0.16991717  0.10147244  0.65731926     0.10100
H713        H  0.16786437  0.00451406  0.67397808     0.08100
Br714      Br  0.14990528  0.02160029  0.72058951    -0.02500
C715        C  0.02146661  0.11467362  0.65270779    -0.09100
C716        C  0.02795940  0.14437106  0.64969501     0.07100
C717        C  0.04903570  0.16532196  0.66509291    -0.02900
C718        C  0.06387566  0.15639502  0.68232715    -0.07300
C719        C  0.05636297  0.12656494  0.68592048     0.06200
C720        C  0.03368458  0.10557420  0.67185801    -0.02300
Br721      Br  0.01773221  0.06443454  0.67875276    -0.02000
H722        H  0.00667555  0.09834513  0.64031539     0.10100
H723        H  0.08067582  0.17271292  0.69359257     0.08100
Br724      Br  0.05735046  0.20611368  0.66410814    -0.02500
C725        C  0.43794090  0.07015327  0.83561526    -0.09100
C726        C  0.43200304  0.08067437  0.81343724     0.07100
C727        C  0.43894140  0.11087914  0.81186248    -0.02900
C728        C  0.45458777  0.13001866  0.83092200    -0.07300
C729        C  0.46096092  0.11919592  0.85260671     0.06200
C730        C  0.45031110  0.08884950  0.85560746    -0.02300
Br731      Br  0.95249035  0.07205523  0.88664554    -0.02000
H732        H  0.43244974  0.04710641  0.83765432     0.10100
H733        H  0.46122584  0.15331240  0.82908678     0.08100
Br734      Br  0.42556245  0.12684392  0.78538967    -0.02500
C735        C  0.33121014  0.41355472  0.82056610    -0.09100
C736        C  0.35973532  0.43509736  0.81584970     0.07100
C737        C  0.38305407  0.43719268  0.83111742    -0.02900
C738        C  0.37799299  0.41651203  0.84958767    -0.07300
C739        C  0.34978082  0.39376827  0.85339844     0.06200
C740        C  0.32593798  0.39329107  0.83946371    -0.02300
Br741      Br  0.28626528  0.36376227  0.84361319    -0.02000
H742        H  0.31310312  0.41216910  0.80917198     0.10100
H743        H  0.39630913  0.41773249  0.86062770     0.08100
Br744      Br  0.42241133  0.46725620  0.82682484    -0.02500
C745        C  0.44032926  0.10738350  0.68856151    -0.09100
C746        C  0.43395961  0.07775283  0.68367882     0.07100
C747        C  0.44120406  0.07012789  0.65987084    -0.02900
C748        C  0.45319593  0.09156293  0.64179373    -0.07300
C749        C  0.46241890  0.12118280  0.64778874     0.06200
C750        C  0.45582565  0.12911654  0.67136086    -0.02300
Br751      Br  0.46910759  0.16928168  0.68132007    -0.02000
H752        H  0.43464722  0.11392866  0.70636934     0.10100
H753        H  0.45856843  0.08545857  0.62366743     0.08100
Br754      Br  0.44021899  0.03248816  0.65139391    -0.02500
C755        C  0.33413563  0.38916121  0.65912952    -0.09100
C756        C  0.35947481  0.38936195  0.64697982     0.07100
C757        C  0.38728708  0.41194640  0.65255833    -0.02900
C758        C  0.38961960  0.43192829  0.67165104    -0.07300
C759        C  0.36446362  0.43027586  0.68495844     0.06200
C760        C  0.33648243  0.40919864  0.67811778    -0.02300
Br761      Br  0.30099440  0.40725115  0.69399883    -0.02000
H762        H  0.31246956  0.37258148  0.65444066     0.10100
H763        H  0.41114869  0.44892329  0.67611399     0.08100
Br764      Br  0.42220151  0.41768445  0.63355598    -0.02500
C765        C  0.44175719  0.16675469  0.53657537    -0.09100
C766        C  0.42568808  0.18252810  0.54466253     0.07100
C767        C  0.43386931  0.19906871  0.56673411    -0.02900
C768        C  0.45633449  0.19781858  0.58104836    -0.07300
C769        C  0.47051216  0.17993998  0.57392417     0.06200
C770        C  0.46362909  0.16496071  0.55113440    -0.02300
Br771      Br  0.97978599  0.13802960  0.54089924    -0.02000
H772        H  0.43550963  0.15367243  0.51978681     0.10100
H773        H  0.46101985  0.20885309  0.59886310     0.08100
Br774      Br  0.41209282  0.21965399  0.58027224    -0.02500
C775        C  0.33436042  0.07145841  0.46444305    -0.09100
C776        C  0.31793199  0.08760575  0.45997711     0.07100
C777        C  0.29878820  0.07964389  0.43958068    -0.02900
C778        C  0.29752134  0.05676026  0.42380491    -0.07300
C779        C  0.31463459  0.04125803  0.42814774     0.06200
C780        C  0.33309565  0.04882573  0.44879706    -0.02300
Br781      Br  0.36016036  0.53179034  0.45510947    -0.02000
H782        H  0.34891212  0.07672559  0.48009682     0.10100
H783        H  0.28413734  0.05190589  0.40743418     0.08100
Br784      Br  0.27550365  0.10012535  0.43101691    -0.02500
C785        C  0.23506900  0.02656092  0.56451391    -0.09100
C786        C  0.20561144  0.02195631  0.56354691     0.07100
C787        C  0.19795133  0.04034000  0.54876624    -0.02900
C788        C  0.22008615  0.06468932  0.53712381    -0.07300
C789        C  0.25009499  0.07074882  0.53962735     0.06200
C790        C  0.25722246  0.05025111  0.55271104    -0.02300
Br791      Br  0.29656150  0.05349401  0.55820826    -0.02000
H792        H  0.24128435  0.01324355  0.57652694     0.10100
H793        H  0.21383999  0.07927022  0.52672223     0.08100
Br794      Br  0.15747149  0.03408333  0.54602450    -0.02500
C795        C  0.41776927  0.23284465  0.42613160    -0.09100
C796        C  0.41368837  0.24477182  0.44879164     0.07100
C797        C  0.43558369  0.27185677  0.45667582    -0.02900
C798        C  0.45871649  0.28835854  0.44046597    -0.07300
C799        C  0.46184975  0.27730266  0.41706703     0.06200
C800        C  0.44215297  0.24844946  0.41071754    -0.02300
Br801      Br  0.44779838  0.22965689  0.38115209    -0.02000
H802        H  0.40185715  0.21135743  0.42036551     0.10100
H803        H  0.47318060  0.31049986  0.44570979     0.08100
Br804      Br  0.43408484  0.28788102  0.48880121    -0.02500
C805        C  0.21007156  0.13941659  0.45966058    -0.09100
C806        C  0.23489957  0.16663642  0.45959706     0.07100
C807        C  0.23366093  0.18949207  0.44536773    -0.02900
C808        C  0.20895446  0.18427325  0.43092106    -0.07300
C809        C  0.18471623  0.15687232  0.43044103     0.06200
C810        C  0.18515498  0.13451199  0.44550595    -0.02300
Br811      Br  0.15203944  0.09697440  0.44775177    -0.02000
H812        H  0.21004216  0.12168957  0.47066376     0.10100
H813        H  0.20915816  0.20155146  0.41923138     0.08100
Br814      Br  0.26522131  0.22810045  0.44311780    -0.02500
C815        C  0.33352633  0.25005354  0.55903313    -0.09100
C816        C  0.34196706  0.25889568  0.53453432     0.07100
C817        C  0.35030398  0.28861831  0.52866961    -0.02900
C818        C  0.35035655  0.30859013  0.54717839    -0.07300
C819        C  0.34216189  0.29970969  0.57172878     0.06200
C820        C  0.33326923  0.26991232  0.57741010    -0.02300
Br821      Br  0.31920661  0.25462344  0.60971966    -0.02000
H822        H  0.32659968  0.22733696  0.56390155     0.10100
H823        H  0.35773078  0.33142207  0.54251213     0.08100
Br824      Br  0.36411039  0.30392987  0.49630159    -0.02500
C825        C  0.22159605  0.07817453  0.95301249    -0.09100
C826        C  0.25197275  0.08566473  0.95325062     0.07100
C827        C  0.26310694  0.06762992  0.94062071    -0.02900
C828        C  0.24407786  0.04361563  0.92660160    -0.07300
C829        C  0.21382708  0.03689053  0.92547623     0.06200
C830        C  0.20254410  0.05395182  0.93941848    -0.02300
Br831      Br  0.16172232  0.04702652  0.93815902    -0.02000
H832        H  0.21280280  0.09179964  0.96278300     0.10100
H833        H  0.25318914  0.03130765  0.91536300     0.08100
Br834      Br  0.30452641  0.07678303  0.93993520    -0.02500
C835        C  0.19500777  0.15303582  0.04723018    -0.09100
C836        C  0.20211205  0.15658153  0.07234786     0.07100
C837        C  0.23101906  0.16111650  0.07906700    -0.02900
C838        C  0.25157359  0.16111302  0.06098426    -0.07300
C839        C  0.24443093  0.15730298  0.03586117     0.06200
C840        C  0.21573548  0.15351362  0.02906331    -0.02300
Br841      Br  0.20238859  0.14679226  0.99554879    -0.02000
H842        H  0.17283886  0.14884233  0.04173218     0.10100
H843        H  0.27350963  0.16460012  0.06661457     0.08100
Br844      Br  0.24431141  0.16852514  0.11261726    -0.02500
C845        C  0.42312459  0.18785737  0.94141892    -0.09100
C846        C  0.42403417  0.17956973  0.96591241     0.07100
C847        C  0.44686149  0.17111330  0.97220737    -0.02900
C848        C  0.46586511  0.16848424  0.95388384    -0.07300
C849        C  0.46368878  0.17508646  0.92926504     0.06200
C850        C  0.44283919  0.18601621  0.92329264    -0.02300
Br851      Br  0.44082925  0.19938201  0.89070670    -0.02000
H852        H  0.40672117  0.19538339  0.93617004     0.10100
H853        H  0.48207944  0.16056316  0.95883784     0.08100
Br854      Br  0.45471713  0.16356756  0.00534995    -0.02500
C855        C  0.34087514  0.05990274  0.03466003    -0.09100
C856        C  0.32245231  0.07356685  0.04169789     0.07100
C857        C  0.30096908  0.06109416  0.06056319    -0.02900
C858        C  0.30016012  0.03698256  0.07336902    -0.07300
C859        C  0.32105606  0.02577642  0.06823575     0.06200
C860        C  0.34063909  0.03646670  0.04802743    -0.02300
Br861      Br  0.37018109  0.52262448  0.04020542    -0.02000
H862        H  0.35721279  0.06898127  0.01997830     0.10100
H863        H  0.28548328  0.02918675  0.08929927     0.08100
Br864      Br  0.27609112  0.07897015  0.07297554    -0.02500
C865        C  0.42873207  0.28002907  0.04358746    -0.09100
C866        C  0.42831147  0.25210840  0.04573328     0.07100
C867        C  0.45175191  0.24976947  0.05864606    -0.02900
C868        C  0.47277727  0.27415078  0.07073071    -0.07300
C869        C  0.47209806  0.30149212  0.06968735     0.06200
C870        C  0.45045738  0.30455819  0.05518543    -0.02300
Br871      Br  0.44995491  0.34183361  0.05017597    -0.02000
H872        H  0.41184125  0.28281986  0.03319268     0.10100
H873        H  0.48930367  0.27148789  0.08173401     0.08100
Br874      Br  0.45781631  0.21465396  0.06051608    -0.02500
C875        C  0.31185176  0.28229175  0.93124296    -0.09100
C876        C  0.33869719  0.30603805  0.92602923     0.07100
C877        C  0.36473905  0.30695885  0.93664066    -0.02900
C878        C  0.36364200  0.28376166  0.95123216    -0.07300
C879        C  0.33675429  0.25950397  0.95605390     0.06200
C880        C  0.31048162  0.25938232  0.94614496    -0.02300
Br881      Br  0.27154216  0.22836348  0.95066047    -0.02000
H882        H  0.29179968  0.28103293  0.92295917     0.10100
H883        H  0.38390756  0.28481894  0.95892714     0.08100
Br884      Br  0.40230516  0.33993287  0.93237952    -0.02500
O885        O  0.35627163  0.61943938  0.02680221    -0.80800
O886        O  0.35929588  0.73073920  0.97551028    -0.65500
O887        O  0.34646507  0.67005441  0.02254322    -1.12100
C888        C  0.27166560  0.61310933  0.96560933     1.06000
O889        O  0.31165031  0.71685929  0.98002933    -0.78700
O890        O  0.26724233  0.66851342  0.99627467    -0.66300
Ni891      Ni  0.37690380  0.66070226  0.03403712     1.34900
C892        C  0.26729692  0.65804976  0.01728547     0.84800
O893        O  0.38685128  0.72948671  0.01864797    -0.79300
O894        O  0.40025786  0.70097814  0.04221036    -0.89600
C895        C  0.33616053  0.73468765  0.97112615     0.84400
O896        O  0.39816344  0.66497195  0.00383515    -0.67800
O897        O  0.27364261  0.63729153  0.95683395    -0.87000
C898        C  0.40118714  0.67947403  0.98435444     0.85200
C899        C  0.40359420  0.72603100  0.03475685     1.06800
H900        H  0.33381215  0.66504517  0.96679904     0.38600
O901        O  0.32482964  0.67026393  0.98083561    -1.09700
O902        O  0.28631051  0.64862243  0.02303102    -0.66400
Ni903      Ni  0.31561797  0.64033010  0.00430752     1.26300
O904        O  0.38554818  0.69347744  0.98017353    -0.66600
O905        O  0.28560817  0.61131890  0.98451067    -0.78900
C906        C  0.32944039  0.60280050  0.03181497     0.84600
O907        O  0.30919752  0.61092092  0.02798277    -0.66100
Ni908      Ni  0.29333278  0.67727156  0.96836715     1.27400
Ni909      Ni  0.35551695  0.70074674  0.99915369     1.26100
H910        H  0.33779348  0.67525212  0.03714909     0.39100
O911        O  0.28136371  0.69553715  0.47857503    -0.80800
O912        O  0.38876061  0.69541124  0.52781819    -0.65500
O913        O  0.32751262  0.67926655  0.48133728    -1.12100
C914        C  0.27380696  0.59788557  0.52900856     1.06000
O915        O  0.38158439  0.64895534  0.52747851    -0.78700
O916        O  0.34291828  0.62054777  0.49193132    -0.66300
Ni917      Ni  0.32179399  0.71034117  0.46687650     1.34900
C918        C  0.32076892  0.61114029  0.47795451     0.84800
O919        O  0.38775992  0.71886092  0.48425414    -0.79300
O920        O  0.36170059  0.72579130  0.45370384    -0.89600
C921        C  0.39714334  0.67565895  0.53277788     0.84400
O922        O  0.33348423  0.73795056  0.49399907    -0.67800
O923        O  0.29912512  0.59780970  0.52704596    -0.87000
C924        C  0.34158938  0.73659895  0.51585422     0.85200
C925        C  0.38609309  0.72901730  0.46323354     1.06800
H926        H  0.32592127  0.66409277  0.53866053     0.38600
O927        O  0.32953409  0.65733734  0.52270477    -1.09700
O928        O  0.30018575  0.61953586  0.48080335    -0.66400
Ni929      Ni  0.29708058  0.65032873  0.50118648     1.26300
O930        O  0.34879789  0.71646484  0.52261129    -0.66600
O931        O  0.26907617  0.61974269  0.52203637    -0.78900
C932        C  0.26197637  0.67006335  0.47324380     0.84600
O933        O  0.26570636  0.64760391  0.47962799    -0.66100
Ni934      Ni  0.33969054  0.62545095  0.52648962     1.27400
Ni935      Ni  0.35862321  0.68857161  0.50416427     1.26100
H936        H  0.33213142  0.66933851  0.46758285     0.39100
N937        N  0.39360661  0.50395705  0.71232832    -0.36600
N938        N  0.36810954  0.96011569  0.74982995    -0.57100
N939        N  0.39026428  0.50695583  0.78575228    -0.36600
N940        N  0.41447221  0.55082905  0.74847586    -0.57100
C941        C  0.37460240  0.98056238  0.69962252     0.27000
C942        C  0.39793734  0.52801872  0.69923763     0.27000
C943        C  0.37122584  0.98444401  0.79932799     0.27000
C944        C  0.39477093  0.53186684  0.79829949     0.27000
C945        C  0.36735684  0.94282612  0.73026014     0.35600
C946        C  0.36594742  0.94443083  0.77029481     0.35600
C947        C  0.43127970  0.56337704  0.72842517     0.35600
C948        C  0.42982839  0.56514684  0.76845284     0.35600
C949        C  0.36588741  0.98970877  0.67854605    -0.21800
C950        C  0.38002624  0.51990621  0.67866568    -0.21800
C951        C  0.36272689  0.99502583  0.82045677    -0.21800
C952        C  0.37723520  0.52511556  0.81960313    -0.21800
C953        C  0.36405317  0.91564539  0.73823732    -0.22900
C954        C  0.36318754  0.91667856  0.76374555    -0.22900
C955        C  0.45789399  0.58564583  0.73566138    -0.22900
C956        C  0.45700595  0.58669935  0.76115819    -0.22900
C957        C  0.36815808  0.95141599  0.70549233    -0.18200
C958        C  0.42099367  0.55590512  0.70400375    -0.18200
C959        C  0.41806551  0.55939349  0.79277931    -0.18200
C960        C  0.36517670  0.95493233  0.79456533    -0.18200
H961        H  0.35143498  0.97601864  0.66436262     0.14700
H962        H  0.37888597  0.53408302  0.66436797     0.14700
H963        H  0.34846219  0.98233933  0.83531724     0.14700
H964        H  0.37639389  0.54018036  0.83378641     0.14700
H965        H  0.36233771  0.89709191  0.72690867     0.12900
H966        H  0.36074778  0.89908532  0.77601191     0.12900
H967        H  0.47594486  0.59966784  0.72386625     0.12900
H968        H  0.47418841  0.60171005  0.77290196     0.12900
H969        H  0.40645300  0.50313640  0.72696716     0.26200
H970        H  0.40328484  0.50508590  0.77108403     0.26200
N971        N  0.11266756  0.60300667  0.71043962    -0.36600
N972        N  0.07868203  0.61525033  0.74939579    -0.57100
N973        N  0.11462890  0.60462977  0.78600147    -0.36600
N974        N  0.14725560  0.59109291  0.74702994    -0.57100
C975        C  0.09098666  0.60477507  0.69701264     0.27000
C976        C  0.12466223  0.58787533  0.69670198     0.27000
C977        C  0.09226721  0.60475349  0.80054375     0.27000
C978        C  0.12820582  0.59097291  0.79863246     0.27000
C979        C  0.06737563  0.62329821  0.72996509     0.35600
C980        C  0.06737511  0.62267574  0.76991749     0.35600
C981        C  0.16252650  0.59032790  0.72644502     0.35600
C982        C  0.16450587  0.59253086  0.76617561     0.35600
C983        C  0.09016454  0.59181623  0.67405121    -0.21800
C984        C  0.11021371  0.57991852  0.67432760    -0.21800
C985        C  0.09234750  0.59200212  0.82298114    -0.21800
C986        C  0.11413775  0.58231590  0.82141144    -0.21800
C987        C  0.04813278  0.63504612  0.73821055    -0.22900
C988        C  0.04809082  0.63460361  0.76346067    -0.22900
C989        C  0.19010639  0.59216415  0.73240702    -0.22900
C990        C  0.19136806  0.59356271  0.75775111    -0.22900
C991        C  0.07224999  0.61808844  0.70487469    -0.18200
C992        C  0.14970902  0.58307787  0.70305622    -0.18200
C993        C  0.15399910  0.58774245  0.79072159    -0.18200
C994        C  0.07253420  0.61702478  0.79440321    -0.18200
H995        H  0.07639888  0.59045843  0.65856239     0.14700
H996        H  0.11385190  0.56734960  0.65929355     0.14700
H997        H  0.07817776  0.58955531  0.83896667     0.14700
H998        H  0.11916366  0.57065148  0.83581273     0.14700
H999        H  0.03472762  0.64236542  0.72727052     0.12900
H1000       H  0.03469694  0.64158394  0.77557750     0.12900
H1001       H  0.20678192  0.59094948  0.71987874     0.12900
H1002       H  0.20925972  0.59370130  0.76874434     0.12900
H1003       H  0.12069932  0.61416628  0.72689627     0.26200
H1004       H  0.12208241  0.61600626  0.76959622     0.26200
N1005       N  0.00900512  0.90887176  0.78774319    -0.36600
N1006       N  0.05345776  0.93302862  0.74965540    -0.57100
N1007       N  0.00939865  0.90294803  0.71242567    -0.36600
N1008       N  0.46515395  0.87942871  0.75053084    -0.57100
C1009       C  0.03080528  0.93045140  0.80022470     0.27000
C1010       C  0.48328984  0.90317042  0.80007848     0.27000
C1011       C  0.03126110  0.92299010  0.69865671     0.27000
C1012       C  0.48406623  0.89448422  0.69959926     0.27000
C1013       C  0.07114214  0.94015417  0.76955515     0.35600
C1014       C  0.07124463  0.93774310  0.72946366     0.35600
C1015       C  0.45070554  0.86576755  0.77118705     0.35600
C1016       C  0.45086433  0.86231789  0.73126037     0.35600
C1017       C  0.01885867  0.93860945  0.82076845    -0.21800
C1018       C  0.48874679  0.92206978  0.82022983    -0.21800
C1019       C  0.01971501  0.92693050  0.67665774    -0.21800
C1020       C  0.48984379  0.90980874  0.67767471    -0.21800
C1021       C  0.10039501  0.94953942  0.76199390    -0.22900
C1022       C  0.10045679  0.94800362  0.73658107    -0.22900
C1023       C  0.42756617  0.83928717  0.76507441    -0.22900
C1024       C  0.42762260  0.83714757  0.73968291    -0.22900
C1025       C  0.06124511  0.94133361  0.79407928    -0.18200
C1026       C  0.45590716  0.87930193  0.79478325    -0.18200
C1027       C  0.45661393  0.87151402  0.70646777    -0.18200
C1028       C  0.06152906  0.93616828  0.70489447    -0.18200
H1029       H  0.03047825  0.95470757  0.83476534     0.14700
H1030       H  0.47289261  0.92305784  0.83377010     0.14700
H1031       H  0.03134061  0.94053582  0.66124217     0.14700
H1032       H  0.47441391  0.90815342  0.66339012     0.14700
H1033       H  0.11974010  0.95764077  0.77347880     0.12900
H1034       H  0.11990231  0.95454608  0.72475553     0.12900
H1035       H  0.41167306  0.82369571  0.77753967     0.12900
H1036       H  0.41183619  0.81960931  0.72867501     0.12900
H1037       H  0.01205503  0.89622806  0.77344600     0.26200
H1038       H  0.01232791  0.89314048  0.72827290     0.26200
C1039       C  0.01735567  0.68069157  0.59244530     0.02300
C1040       C  0.48637146  0.67172660  0.59289647     0.02300
C1041       C  0.46902557  0.65286427  0.61158386    -0.18200
C1042       C  0.48184316  0.64316918  0.62999944     0.02300
C1043       C  0.01287935  0.65323280  0.63033814     0.02300
C1044       C  0.03012421  0.67194543  0.61169886    -0.18200
H1045       H  0.05393190  0.67948222  0.61200271     0.04300
H1046       H  0.44518001  0.64510254  0.61145966     0.04300
C1047       C  0.18620894  0.50660439  0.58450597     0.02300
C1048       C  0.16659938  0.97664881  0.58461866     0.02300
C1049       C  0.14626592  0.96601175  0.60435294    -0.18200
C1050       C  0.14613224  0.98411202  0.62442262     0.02300
C1051       C  0.16738529  0.51379765  0.62487213     0.02300
C1052       C  0.18750138  0.52407543  0.60517366    -0.18200
H1053       H  0.20445557  0.54634903  0.60568049     0.04300
H1054       H  0.13069294  0.94316421  0.60433457     0.04300
C1055       C  0.33972206  0.82787768  0.90738182     0.02300
C1056       C  0.32273710  0.84440300  0.90925811     0.02300
C1057       C  0.32649024  0.86549999  0.89129918    -0.18200
C1058       C  0.34593699  0.87007073  0.87105743     0.02300
C1059       C  0.36181460  0.85249146  0.86847827     0.02300
C1060       C  0.35793773  0.83140908  0.88645430    -0.18200
H1061       H  0.36977363  0.81772929  0.88432785     0.04300
H1062       H  0.31431775  0.87887382  0.89333281     0.04300
C1063       C  0.34549415  0.82217859  0.59137945     0.02300
C1064       C  0.33227817  0.84205925  0.58975805     0.02300
C1065       C  0.33770334  0.86352530  0.60820678    -0.18200
C1066       C  0.35579666  0.86599328  0.62835605     0.02300
C1067       C  0.36857342  0.84569392  0.63060039     0.02300
C1068       C  0.36367016  0.82461117  0.61164697    -0.18200
H1069       H  0.37409269  0.80969102  0.61269344     0.04300
H1070       H  0.32703090  0.87826263  0.60716527     0.04300
C1071       C  0.17474543  0.98958885  0.90783900     0.02300
C1072       C  0.19617843  0.51854024  0.90488781     0.02300
C1073       C  0.19735726  0.53307145  0.88294985    -0.18200
C1074       C  0.17603308  0.52082366  0.86464919     0.02300
C1075       C  0.15275945  0.99234617  0.86818835     0.02300
C1076       C  0.15295531  0.97715730  0.88973896    -0.18200
H1077       H  0.13576565  0.95537335  0.89266515     0.04300
H1078       H  0.21430416  0.55520574  0.88079858     0.04300
C1079       C  0.01229606  0.67740469  0.91017793     0.02300
C1080       C  0.48100517  0.66757353  0.90976992     0.02300
C1081       C  0.46497986  0.64822697  0.89087139    -0.18200
C1082       C  0.47915214  0.63965487  0.87186078     0.02300
C1083       C  0.01027209  0.65037423  0.87160841     0.02300
C1084       C  0.02627396  0.66900453  0.89071297    -0.18200
H1085       H  0.05016733  0.67746803  0.89014895     0.04300
H1086       H  0.44105085  0.63951806  0.89101457     0.04300
O1087       O  0.11571982  0.84690586  0.47403000    -0.80800
O1088       O  0.22920581  0.85293430  0.52343434    -0.65500
O1089       O  0.16777604  0.83884724  0.47685759    -1.12100
C1090       C  0.11196707  0.76208025  0.53282571     1.06000
O1091       O  0.21778046  0.80577955  0.52014538    -0.78700
O1092       O  0.16970201  0.76141079  0.50174988    -0.66300
Ni1093     Ni  0.15703259  0.86845404  0.46593859     1.34900
C1094       C  0.15818154  0.76141143  0.48115446     0.84800
O1095       O  0.22713699  0.88108726  0.48098199    -0.79300
O1096       O  0.19725197  0.89257390  0.45724156    -0.89600
C1097       C  0.23439355  0.83092786  0.52855243     0.84400
O1098       O  0.16125126  0.88915277  0.49616900    -0.67800
O1099       O  0.13672824  0.76460006  0.54113655    -0.87000
C1100       C  0.17478305  0.89074838  0.51602625     0.85200
C1101       C  0.22290990  0.89723074  0.46481618     1.06800
H1102       H  0.16320547  0.82480686  0.53249428     0.38600
O1103       O  0.16891525  0.81661679  0.51814250    -1.09700
O1104       O  0.14754042  0.77947416  0.47592560    -0.66400
Ni1105     Ni  0.13834380  0.80741532  0.49505254     1.26300
O1106       O  0.18946768  0.87580709  0.51982812    -0.66600
O1107       O  0.10955442  0.77665937  0.51465907    -0.78900
C1108       C  0.09995867  0.82066738  0.46760700     0.84600
O1109       O  0.10850074  0.80083858  0.47146440    -0.66100
Ni1110     Ni  0.17720247  0.78592783  0.53037321     1.27400
Ni1111     Ni  0.19887401  0.84831034  0.49999604     1.26100
H1112       H  0.17334322  0.83093517  0.46222320     0.39100
O1113       O  0.19150291  0.78062368  0.02302872    -0.80800
O1114       O  0.19230551  0.88852642  0.97223254    -0.65500
O1115       O  0.17897706  0.82858526  0.01937838    -1.12100
C1116       C  0.10007865  0.77215187  0.96532853     1.06000
O1117       O  0.14483384  0.87760321  0.97374491    -0.78700
O1118       O  0.10279147  0.83044680  0.99440012    -0.66300
Ni1119     Ni  0.21049364  0.82138307  0.03180782     1.34900
C1120       C  0.10214970  0.81941085  0.01536837     0.84800
O1121       O  0.21706880  0.88801478  0.01570545    -0.79300
O1122       O  0.23142386  0.86182701  0.04134000    -0.89600
C1123       C  0.17101082  0.89512762  0.96775173     0.84400
O1124       O  0.23428076  0.82790491  0.00266561    -0.67800
O1125       O  0.10476822  0.79668991  0.95585541    -0.87000
C1126       C  0.23439315  0.83950002  0.98211438     0.85200
C1127       C  0.23249959  0.88599496  0.03344845     1.06800
H1128       H  0.16564793  0.82313568  0.96369407     0.38600
O1129       O  0.15674413  0.82843900  0.97782131    -1.09700
O1130       O  0.11915025  0.80732022  0.02072052    -0.66400
Ni1131     Ni  0.14774595  0.79818320  0.00162026     1.26300
O1132       O  0.21691540  0.85116890  0.97722001    -0.66600
O1133       O  0.11549334  0.76922967  0.98288246    -0.78900
C1134       C  0.16583597  0.76331848  0.03056489     0.84600
O1135       O  0.14360958  0.76861807  0.02571204    -0.66100
Ni1136     Ni  0.12611780  0.83671543  0.96516314     1.27400
Ni1137     Ni  0.18721347  0.85877775  0.99597404     1.26100
H1138       H  0.17030888  0.83386450  0.03370911     0.39100
N1139       N  0.48962276  0.60363097  0.21004622    -0.36600
N1140       N  0.03193255  0.61711081  0.24898329    -0.57100
N1141       N  0.48342037  0.60269780  0.28517195    -0.36600
N1142       N  0.44169024  0.59353489  0.24596515    -0.57100
C1143       C  0.01537317  0.61652729  0.19708691     0.27000
C1144       C  0.46778797  0.60254545  0.19523479     0.27000
C1145       C  0.00745628  0.61559296  0.29967600     0.27000
C1146       C  0.45932764  0.60032309  0.29876923     0.27000
C1147       C  0.04801855  0.61397552  0.22962872     0.35600
C1148       C  0.04505425  0.61415094  0.26963122     0.35600
C1149       C  0.42550285  0.58568215  0.22510645     0.35600
C1150       C  0.42213917  0.58566131  0.26523870     0.35600
C1151       C  0.00971420  0.62436846  0.17399263    -0.21800
C1152       C  0.47959236  0.61496856  0.17266982    -0.21800
C1153       C  0.99861641  0.62215585  0.32249773    -0.21800
C1154       C  0.46844904  0.61162490  0.32230058    -0.21800
C1155       C  0.07123757  0.60862126  0.23801475    -0.22900
C1156       C  0.06940692  0.60885227  0.26340935    -0.22900
C1157       C  0.39569214  0.57456123  0.23120641    -0.22900
C1158       C  0.39357521  0.57502820  0.25648893    -0.22900
C1159       C  0.04311033  0.61830476  0.20469572    -0.18200
C1160       C  0.43726675  0.58816429  0.20067216    -0.18200
C1161       C  0.42947916  0.58699447  0.29063353    -0.18200
C1162       C  0.03650613  0.61848400  0.29390507    -0.18200
H1163       H  0.02548563  0.63490004  0.15926962     0.14700
H1164       H  0.46763001  0.61683785  0.15686774     0.14700
H1165       H  0.01228065  0.63252353  0.33820225     0.14700
H1166       H  0.45558335  0.61262890  0.33820262     0.14700
H1167       H  0.08799177  0.60552766  0.22694248     0.12900
H1168       H  0.08440443  0.60595743  0.27597472     0.12900
H1169       H  0.37715984  0.56641363  0.21887154     0.12900
H1170       H  0.37317019  0.56744490  0.26718362     0.12900
H1171       H  0.48647118  0.59225652  0.22645816     0.26200
H1172       H  0.48293560  0.59256300  0.26820332     0.26200
N1173       N  0.40387062  0.90208783  0.28966921    -0.36600
N1174       N  0.41990360  0.87641974  0.24841094    -0.57100
N1175       N  0.40169760  0.90943811  0.21606980    -0.36600
N1176       N  0.38467472  0.93536604  0.25725180    -0.57100
C1177       C  0.42124287  0.89081284  0.29973095     0.27000
C1178       C  0.40407815  0.92372601  0.30482968     0.27000
C1179       C  0.42222662  0.90494483  0.20221006     0.27000
C1180       C  0.39879886  0.93251089  0.20657554     0.27000
C1181       C  0.41841440  0.85716172  0.26578876     0.35600
C1182       C  0.42031098  0.86387326  0.22639037     0.35600
C1183       C  0.37267145  0.93832303  0.27906299     0.35600
C1184       C  0.36813425  0.93900891  0.23938544     0.35600
C1185       C  0.43335766  0.90601807  0.32129010    -0.21800
C1186       C  0.42181921  0.92625109  0.32489283    -0.21800
C1187       C  0.43326159  0.92617404  0.18406369    -0.21800
C1188       C  0.41794888  0.94334497  0.18657856    -0.21800
C1189       C  0.41666251  0.83142951  0.25476766    -0.22900
C1190       C  0.41792607  0.83574056  0.22957742    -0.22900
C1191       C  0.34816942  0.94395626  0.27503801    -0.22900
C1192       C  0.34482956  0.94353945  0.24980976    -0.22900
C1193       C  0.42360942  0.86530567  0.29084458    -0.18200
C1194       C  0.38558314  0.93819888  0.30202557    -0.18200
C1195       C  0.37651961  0.94109696  0.21419065    -0.18200
C1196       C  0.42838492  0.88023971  0.20454812    -0.18200
H1197       H  0.44782787  0.90204647  0.33376539     0.14700
H1198       H  0.42543718  0.94040619  0.34090001     0.14700
H1199       H  0.44987942  0.92855710  0.17001729     0.14700
H1200       H  0.42024601  0.96138754  0.17490265     0.14700
H1201       H  0.41619803  0.81231619  0.26386417     0.12900
H1202       H  0.41884903  0.82074779  0.21536152     0.12900
H1203       H  0.33426816  0.94833643  0.28858190     0.12900
H1204       H  0.32802313  0.94744048  0.24031341     0.12900
H1205       H  0.38936565  0.89279898  0.27515452     0.26200
H1206       H  0.38738434  0.89521783  0.22915336     0.26200
C1207       C  0.31885239  0.52263550  0.40844047     0.02300
C1208       C  0.31496580  0.99370091  0.41282156     0.02300
C1209       C  0.32987536  0.98176055  0.39744726    -0.18200
C1210       C  0.34575147  0.99631427  0.37640002     0.02300
C1211       C  0.34782030  0.52470960  0.37063866     0.02300
C1212       C  0.33305647  0.53663458  0.38657940    -0.18200
H1213       H  0.33326764  0.55761575  0.38247951     0.04300
H1214       H  0.32775345  0.95988092  0.40112187     0.04300
N1215       N  0.10224324  0.98798010  0.28846015    -0.36600
N1216       N  0.12730674  0.53476215  0.25210547    -0.57100
N1217       N  0.11263349  0.99052145  0.21471226    -0.36600
N1218       N  0.09001630  0.94371649  0.25057643    -0.57100
C1219       C  0.11608060  0.51180774  0.30297920     0.27000
C1220       C  0.09679986  0.96412580  0.30233285     0.27000
C1221       C  0.13110280  0.51438583  0.20210476     0.27000
C1222       C  0.10987522  0.96689168  0.20107674     0.27000
C1223       C  0.12394625  0.54995298  0.27179277     0.35600
C1224       C  0.12968024  0.55112705  0.23195859     0.35600
C1225       C  0.07547306  0.92634135  0.26967090     0.35600
C1226       C  0.07951436  0.92782585  0.22976421     0.35600
C1227       C  0.11987881  0.50301082  0.32627669    -0.21800
C1228       C  0.10753204  0.97288098  0.32589952    -0.21800
C1229       C  0.14107523  0.50564500  0.18066727    -0.21800
C1230       C  0.12713484  0.97556863  0.17979598    -0.21800
C1231       C  0.12464079  0.57631744  0.26422386    -0.22900
C1232       C  0.12776926  0.57685118  0.23892606    -0.22900
C1233       C  0.05639982  0.89894523  0.26097939    -0.22900
C1234       C  0.05922953  0.89985289  0.23565713    -0.22900
C1235       C  0.12189764  0.54085244  0.29655178    -0.18200
C1236       C  0.08004933  0.93478664  0.29482078    -0.18200
C1237       C  0.08859623  0.93833514  0.20562128    -0.18200
C1238       C  0.13505375  0.54331813  0.20769562    -0.18200
H1239       H  0.12959215  0.51685096  0.34215414     0.14700
H1240       H  0.10604188  0.95897215  0.34133899     0.14700
H1241       H  0.15550174  0.51953227  0.16643394     0.14700
H1242       H  0.12866539  0.96167357  0.16485278     0.14700
H1243       H  0.12344977  0.59351858  0.27575415     0.12900
H1244       H  0.12925398  0.59449452  0.22714720     0.12900
H1245       H  0.04202861  0.88025350  0.27170713     0.12900
H1246       H  0.04796905  0.88186066  0.22305186     0.12900
H1247       H  0.09324239  0.98799799  0.27133773     0.26200
H1248       H  0.09851568  0.99028435  0.22924859     0.26200
C1249       C  0.31209252  0.98062736  0.09261691     0.02300
C1250       C  0.32792812  0.51068543  0.08835628     0.02300
C1251       C  0.34917869  0.52816971  0.10526288    -0.18200
C1252       C  0.35515044  0.51633831  0.12649660     0.02300
C1253       C  0.33813787  0.98600955  0.13146225     0.02300
C1254       C  0.31632322  0.96898910  0.11465571    -0.18200
H1255       H  0.30266229  0.94614997  0.11848679     0.04300
H1256       H  0.36122731  0.55140549  0.10180238     0.04300
C1257       C  0.14401289  0.66800890  0.41169770     0.02300
C1258       C  0.16082550  0.65128389  0.41222724     0.02300
C1259       C  0.15674809  0.63029257  0.39351323    -0.18200
C1260       C  0.13621052  0.62530751  0.37474147     0.02300
C1261       C  0.11870309  0.64119494  0.37472414     0.02300
C1262       C  0.12304504  0.66260168  0.39305597    -0.18200
H1263       H  0.11014903  0.67531542  0.39272467     0.04300
H1264       H  0.17018791  0.61810149  0.39321224     0.04300
C1265       C  0.15934138  0.66659067  0.09143757     0.02300
C1266       C  0.17836775  0.65193228  0.09138098     0.02300
C1267       C  0.17393433  0.63080326  0.10958410    -0.18200
C1268       C  0.15261540  0.62508620  0.12839423     0.02300
C1269       C  0.13377705  0.63947237  0.12845594     0.02300
C1270       C  0.13719662  0.65981853  0.10996205    -0.18200
H1271       H  0.12282010  0.67102294  0.11034267     0.04300
H1272       H  0.18733066  0.61857346  0.10920093     0.04300
C1273       C  0.01172124  0.81530859  0.40121576     0.02300
C1274       C  0.48129818  0.79778590  0.39798000     0.02300
C1275       C  0.46777027  0.80214435  0.37698920    -0.18200
C1276       C  0.48319402  0.82438947  0.35995894     0.02300
C1277       C  0.01352640  0.84276272  0.36395069     0.02300
C1278       C  0.02743659  0.83729902  0.38414829    -0.18200
H1279       H  0.05076843  0.85078295  0.38696189     0.04300
H1280       H  0.44434529  0.78888111  0.37450628     0.04300
C1281       C  0.49099935  0.82490036  0.08689698     0.02300
C1282       C  0.02221845  0.83684305  0.08617297     0.02300
C1283       C  0.03837040  0.85725160  0.10421516    -0.18200
C1284       C  0.02436291  0.86497999  0.12396752     0.02300
C1285       C  0.49290311  0.85309414  0.12481227     0.02300
C1286       C  0.47690245  0.83292379  0.10640867    -0.18200
H1287       H  0.45297849  0.82236107  0.10777226     0.04300
H1288       H  0.06232439  0.86691370  0.10305470     0.04300
C1289       C  0.04206277  0.91430435  0.32836356    -0.09100
C1290       C  0.06506122  0.91237436  0.31412521     0.07100
C1291       C  0.07251788  0.88876214  0.31789314    -0.02900
C1292       C  0.05598568  0.86684019  0.33467027    -0.07300
C1293       C  0.03160740  0.86768437  0.34763782     0.06200
C1294       C  0.02564156  0.89246051  0.34524511    -0.02300
Br1295     Br  0.49677934  0.89854381  0.36563691    -0.02000
H1296       H  0.03671688  0.93282485  0.32616684     0.10100
H1297       H  0.06152436  0.84845912  0.33698717     0.08100
Br1298     Br  0.10487685  0.88539749  0.30048172    -0.02500
C1299       C  0.03934984  0.91032545  0.14994975    -0.09100
C1300       C  0.04319661  0.88505277  0.14346303     0.07100
C1301       C  0.06336455  0.87816110  0.15698683    -0.02900
C1302       C  0.07838276  0.89591773  0.17689045    -0.07300
C1303       C  0.07330537  0.92023399  0.18398350     0.06200
C1304       C  0.05358044  0.92740150  0.17036933    -0.02300
Br1305     Br  0.54369664  0.95906628  0.18005643    -0.02000
H1306       H  0.52405641  0.91596400  0.13981831     0.10100
H1307       H  0.09354091  0.89034888  0.18728445     0.08100
Br1308     Br  0.06985988  0.84372658  0.15057425    -0.02500
C1309       C  0.15211792  0.58800252  0.31833469    -0.09100
C1310       C  0.12561561  0.56249496  0.31673345     0.07100
C1311       C  0.10289085  0.55795276  0.33432787    -0.02900
C1312       C  0.10769373  0.57761827  0.35394020    -0.07300
C1313       C  0.13356303  0.60357550  0.35507665     0.06200
C1314       C  0.15586756  0.60889276  0.33692870    -0.02300
Br1315     Br  0.19103287  0.64482351  0.33611408    -0.02000
H1316       H  0.16959967  0.59197863  0.30470633     0.10100
H1317       H  0.09075796  0.57291816  0.36803223     0.08100
Br1318     Br  0.06405119  0.52675477  0.33137614    -0.02500
C1319       C  0.12543850  0.55535230  0.16505245    -0.09100
C1320       C  0.14180688  0.56460046  0.18690059     0.07100
C1321       C  0.16443916  0.59340734  0.18796051    -0.02900
C1322       C  0.16733821  0.61315073  0.16904556    -0.07300
C1323       C  0.15016418  0.60378627  0.14775769     0.06200
C1324       C  0.13109720  0.57407634  0.14503127    -0.02300
Br1325     Br  0.11541423  0.55743293  0.11355708    -0.02000
H1326       H  0.10886132  0.53306144  0.16313244     0.10100
H1327       H  0.18363707  0.63562172  0.17057341     0.08100
Br1328     Br  0.19348104  0.60610600  0.21345325    -0.02500
C1329       C  0.43997381  0.83318327  0.34807482    -0.09100
C1330       C  0.46571779  0.83016146  0.34061643     0.07100
C1331       C  0.47406654  0.83342643  0.31540669    -0.02900
C1332       C  0.45995309  0.84453016  0.29929395    -0.07300
C1333       C  0.43548654  0.84961544  0.30726638     0.06200
C1334       C  0.42427670  0.84172470  0.33149649    -0.02300
Br1335     Br  0.38798512  0.84256382  0.34325076    -0.02000
H1336       H  0.43235801  0.82961464  0.36714537     0.10100
H1337       H  0.46833855  0.84939781  0.28050608     0.08100
Br1338     Br  0.50228661  0.82061056  0.30143542    -0.02500
C1339       C  0.48355509  0.85888931  0.16993254    -0.09100
C1340       C  0.47588885  0.85968696  0.14521364     0.07100
C1341       C  0.45191953  0.86676642  0.14043073    -0.02900
C1342       C  0.43549945  0.87112000  0.15998652    -0.07300
C1343       C  0.44452226  0.87229505  0.18444238     0.06200
C1344       C  0.46967231  0.86735104  0.18917161    -0.02300
Br1345     Br  0.48816574  0.87527837  0.22080044    -0.02000
H1346       H  0.00143210  0.85312110  0.17432595     0.10100
H1347       H  0.41648839  0.87531102  0.15595595     0.08100
Br1348     Br  0.44202074  0.87407323  0.10801964    -0.02500
C1349       C  0.34836579  0.93805346  0.33279170    -0.09100
C1350       C  0.37753974  0.95139650  0.32395793     0.07100
C1351       C  0.39743261  0.97789453  0.33484026    -0.02900
C1352       C  0.38735455  0.99112366  0.35352914    -0.07300
C1353       C  0.35724083  0.97948542  0.36010913     0.06200
C1354       C  0.33774026  0.95232436  0.34989005    -0.02300
Br1355     Br  0.29569311  0.93519882  0.35591083    -0.02000
H1356       H  0.33312700  0.91748894  0.32475542     0.10100
H1357       H  0.40249868  0.01177187  0.36147806     0.08100
Br1358     Br  0.43760287  0.99846089  0.32337659    -0.02500
C1359       C  0.34657971  0.98573962  0.17676618    -0.09100
C1360       C  0.34274151  0.97152611  0.15371511     0.07100
C1361       C  0.34608097  0.94500114  0.15205310    -0.02900
C1362       C  0.35379140  0.93413878  0.17288943    -0.07300
C1363       C  0.36172378  0.95062693  0.19487051     0.06200
C1364       C  0.35838487  0.97695272  0.19642351    -0.02300
Br1365     Br  0.37513454  0.00491144  0.22211685    -0.02000
H1366       H  0.34332885  0.50557119  0.17880755     0.10100
H1367       H  0.35633285  0.91386979  0.17119443     0.08100
Br1368     Br  0.34541982  0.92452028  0.12163372    -0.02500
C1369       C  0.36491073  0.52842236  0.32602077    -0.09100
C1370       C  0.36529601  0.54243712  0.34879676     0.07100
C1371       C  0.38356592  0.57306000  0.35025071    -0.02900
C1372       C  0.40066386  0.58781060  0.32967725    -0.07300
C1373       C  0.40489372  0.57229289  0.30931543     0.06200
C1374       C  0.38643699  0.54203804  0.30776930    -0.02300
Br1375     Br  0.39180561  0.51714495  0.28299298    -0.02000
H1376       H  0.34968708  0.00581651  0.32314679     0.10100
H1377       H  0.41263066  0.61137638  0.33053020     0.08100
Br1378     Br  0.39025742  0.59612637  0.38011808    -0.02500
C1379       C  0.42180741  0.54892395  0.16840335    -0.09100
C1380       C  0.41752947  0.57216555  0.17984255     0.07100
C1381       C  0.39507657  0.57933426  0.17113336    -0.02900
C1382       C  0.37523814  0.56120523  0.15353044    -0.07300
C1383       C  0.37831851  0.53668259  0.14335603     0.06200
C1384       C  0.40307708  0.53187420  0.14980285    -0.02300
Br1385     Br  0.41288386  0.50313700  0.13313489    -0.02000
H1386       H  0.43988518  0.54399761  0.17402646     0.10100
H1387       H  0.35712820  0.56609020  0.14794623     0.08100
Br1388     Br  0.39144934  0.61411142  0.18204206    -0.02500
C1389       C  0.04975537  0.60757074  0.33582593    -0.09100
C1390       C  0.05821018  0.62493347  0.31450138     0.07100
C1391       C  0.08639574  0.64895029  0.31391715    -0.02900
C1392       C  0.10582728  0.65387679  0.33359972    -0.07300
C1393       C  0.09699134  0.63662321  0.35487051     0.06200
C1394       C  0.06804199  0.61438007  0.35637033    -0.02300
Br1395     Br  0.05165687  0.59402473  0.38653975    -0.02000
H1396       H  0.02812646  0.58937984  0.33697470     0.10100
H1397       H  0.12775549  0.67161959  0.33252776     0.08100
Br1398     Br  0.09887677  0.67690368  0.28767742    -0.02500
C1399       C  0.06082269  0.60628796  0.16404349    -0.09100
C1400       C  0.06718003  0.62373457  0.18562542     0.07100
C1401       C  0.09575428  0.64684466  0.18788883    -0.02900
C1402       C  0.11737888  0.65102388  0.16948704    -0.07300
C1403       C  0.11062103  0.63383330  0.14789776     0.06200
C1404       C  0.08172281  0.61212387  0.14484778    -0.02300
Br1405     Br  0.06886721  0.59195670  0.11399165    -0.02000
H1406       H  0.03895898  0.58884738  0.16160337     0.10100
H1407       H  0.13931034  0.66846442  0.17161102     0.08100
Br1408     Br  0.10592231  0.67501184  0.21441782    -0.02500
C1409       C  0.18741445  0.74048827  0.05981986    -0.09100
C1410       C  0.16330430  0.73743722  0.04513061     0.07100
C1411       C  0.13854250  0.71007107  0.04467781    -0.02900
C1412       C  0.13829794  0.68680973  0.05885001    -0.07300
C1413       C  0.16235012  0.69016636  0.07376356     0.06200
C1414       C  0.18692437  0.71753405  0.07425766    -0.02300
Br1415     Br  0.21906677  0.72592308  0.09632505    -0.02000
H1416       H  0.20655030  0.76135894  0.06081643     0.10100
H1417       H  0.11894720  0.66607109  0.05860886     0.08100
Br1418     Br  0.10495932  0.70294018  0.02461251    -0.02500
C1419       C  0.05182747  0.80988559  0.07243881    -0.09100
C1420       C  0.03926769  0.82922672  0.06689352     0.07100
C1421       C  0.04725279  0.84481669  0.04478142    -0.02900
C1422       C  0.06738469  0.84090713  0.02851867    -0.07300
C1423       C  0.08047050  0.82172246  0.03383051     0.06200
C1424       C  0.07214208  0.80584307  0.05615965    -0.02300
Br1425     Br  0.08726669  0.77843414  0.06588773    -0.02000
H1426       H  0.04630436  0.79839829  0.08985329     0.10100
H1427       H  0.07333532  0.85374392  0.01181202     0.08100
Br1428     Br  0.03299658  0.87346848  0.03691751    -0.02500
C1429       C  0.26298965  0.95509748  0.07274818    -0.09100
C1430       C  0.29279951  0.96013386  0.07390704     0.07100
C1431       C  0.30294550  0.94226238  0.05987235    -0.02900
C1432       C  0.28309029  0.91881121  0.04609366    -0.07300
C1433       C  0.25309127  0.91300629  0.04568649     0.06200
C1434       C  0.24312139  0.93173922  0.05863669    -0.02300
Br1435     Br  0.20214762  0.92437556  0.05964656    -0.02000
H1436       H  0.25490709  0.96843531  0.08376490     0.10100
H1437       H  0.29097481  0.90460653  0.03608381     0.08100
Br1438     Br  0.34349196  0.94812362  0.05975571    -0.02500
C1439       C  0.14304545  0.70898691  0.47110825    -0.09100
C1440       C  0.15568792  0.73814013  0.46311772     0.07100
C1441       C  0.16483335  0.74405899  0.43823168    -0.02900
C1442       C  0.16110075  0.72095123  0.42184084    -0.07300
C1443       C  0.14829978  0.69181194  0.42984454     0.06200
C1444       C  0.13895785  0.68590051  0.45466440    -0.02300
Br1445     Br  0.11859755  0.64671571  0.46655775    -0.02000
H1446       H  0.13547031  0.70408771  0.49011105     0.10100
H1447       H  0.16834927  0.72571387  0.40276101     0.08100
Br1448     Br  0.18385591  0.78325134  0.42607762    -0.02500
C1449       C  0.06576309  0.79496640  0.43400140    -0.09100
C1450       C  0.07230223  0.81391106  0.45452587     0.07100
C1451       C  0.05496863  0.82944294  0.45959098    -0.02900
C1452       C  0.03383978  0.82837065  0.44268077    -0.07300
C1453       C  0.02863623  0.81084152  0.42134974     0.06200
C1454       C  0.04420749  0.79347570  0.41737032    -0.02300
Br1455     Br  0.03936534  0.77026234  0.38791905    -0.02000
H1456       H  0.07896821  0.78299379  0.42982660     0.10100
H1457       H  0.02248794  0.84234705  0.44562486     0.08100
Br1458     Br  0.05922807  0.85243321  0.48917897    -0.02500
C1459       C  0.30003613  0.95596853  0.44619488    -0.09100
C1460       C  0.29238396  0.97348006  0.43036697     0.08300
C1461       C  0.26222392  0.96630133  0.42709268    -0.02900
C1462       C  0.24072881  0.94231236  0.43922793    -0.07300
C1463       C  0.24801267  0.92363183  0.45410069     0.06200
C1464       C  0.27836246  0.93111206  0.45774422    -0.02300
Br1465     Br  0.29213853  0.90737900  0.47623276    -0.02000
H1466       H  0.32312132  0.96060705  0.44832632     0.10100
H1467       H  0.21786239  0.93764451  0.43589864     0.08100
Br1468     Br  0.24845896  0.98528333  0.40327469    -0.02500
C1469       C  0.02900746  0.72533899  0.93214862    -0.09100
C1470       C  0.03173245  0.69903455  0.92854965     0.07100
C1471       C  0.05549326  0.69573957  0.93987134    -0.02900
C1472       C  0.07688712  0.71922835  0.95282818    -0.07300
C1473       C  0.07514943  0.74620676  0.95488041     0.06200
C1474       C  0.04996581  0.74854059  0.94541592    -0.02300
Br1475     Br  0.04216635  0.78256534  0.95001596    -0.02000
H1476       H  0.01110369  0.72843375  0.92368924     0.10100
H1477       H  0.09555333  0.71672430  0.96044282     0.08100
Br1478     Br  0.06040250  0.65996229  0.93793955    -0.02500
C1479       C  0.20093114  0.96328936  0.92729554    -0.09100
C1480       C  0.17662623  0.97045755  0.92758453     0.07100
C1481       C  0.15253692  0.95523157  0.94351724    -0.02900
C1482       C  0.15229164  0.93217920  0.95760753    -0.07300
C1483       C  0.17554590  0.92326756  0.95593596     0.06200
C1484       C  0.20059409  0.93988201  0.94111339    -0.02300
Br1485     Br  0.23370697  0.93024307  0.93656727    -0.02000
H1486       H  0.21942405  0.97459756  0.91482542     0.10100
H1487       H  0.13303583  0.92033482  0.96916780     0.08100
Br1488     Br  0.11877460  0.96414175  0.94582233    -0.02500
C1489       C  0.28667754  0.85885628  0.54206799    -0.09100
C1490       C  0.25983258  0.83381382  0.54379327     0.07100
C1491       C  0.25775942  0.81121441  0.55992887    -0.02900
C1492       C  0.28237824  0.81351820  0.57313288    -0.07300
C1493       C  0.30912578  0.83853363  0.57155088     0.06200
C1494       C  0.31110444  0.86148960  0.55594387    -0.02300
Br1495     Br  0.34647892  0.89702380  0.55311332    -0.02000
H1496       H  0.28866183  0.87646342  0.52995724     0.10100
H1497       H  0.28009215  0.79638916  0.58592707     0.08100
Br1498     Br  0.22109369  0.77825028  0.56735064    -0.02500
C1499       C  0.27043302  0.82975814  0.92214679    -0.09100
C1500       C  0.30019221  0.84025950  0.92894259     0.07100
C1501       C  0.30797266  0.84991027  0.95339649    -0.02900
C1502       C  0.28616330  0.84930331  0.97044163    -0.07300
C1503       C  0.25653645  0.83963899  0.96342834     0.06200
C1504       C  0.24865867  0.82923964  0.93915398    -0.02300
Br1505     Br  0.20836988  0.81262251  0.92874045    -0.02000
H1506       H  0.26420047  0.82225903  0.90336289     0.10100
H1507       H  0.29249447  0.85712823  0.98913901     0.08100
Br1508     Br  0.34819324  0.86596708  0.96393650    -0.02500
C1509       C  0.19448112  0.95024118  0.56570749    -0.09100
C1510       C  0.16885708  0.95530995  0.56636855     0.07100
C1511       C  0.14472304  0.93750781  0.55181919    -0.02900
C1512       C  0.14694758  0.91602094  0.53635099    -0.07300
C1513       C  0.17287145  0.91143251  0.53506953     0.06200
C1514       C  0.19678500  0.92870140  0.55017024    -0.02300
Br1515     Br  0.23363488  0.92519746  0.54952325    -0.02000
H1516       H  0.21266952  0.96278619  0.57766223     0.10100
H1517       H  0.12823957  0.90291900  0.52502423     0.08100
Br1518     Br  0.10832033  0.44183149  0.55192887    -0.02500
C1519       C  0.08196203  0.71184598  0.54743456    -0.09100
C1520       C  0.08478431  0.74048058  0.54476740     0.07100
C1521       C  0.06249427  0.74800472  0.55470974    -0.02900
C1522       C  0.03933008  0.72765954  0.56897435    -0.07300
C1523       C  0.03757434  0.69951057  0.57292903     0.06200
C1524       C  0.05841900  0.69129586  0.56093424    -0.02300
Br1525     Br  0.05615674  0.65235830  0.56270549    -0.02000
H1526       H  0.09845071  0.70553443  0.53922818     0.10100
H1527       H  0.02362478  0.73438960  0.57807486     0.08100
Br1528     Br  0.06407265  0.78642895  0.55126350    -0.02500
C1529       C  0.40284832  0.86619895  0.80641839    -0.09100
C1530       C  0.43121204  0.86999797  0.81356764     0.07100
C1531       C  0.43531425  0.86486024  0.83845535    -0.02900
C1532       C  0.41284777  0.86034641  0.85591755    -0.07300
C1533       C  0.38473974  0.85716885  0.84883196     0.06200
C1534       C  0.37931509  0.85770159  0.82345471    -0.02300
Br1535     Br  0.34018281  0.84293777  0.81056043    -0.02000
H1536       H  0.39862640  0.86878509  0.78728603     0.10100
H1537       H  0.41720480  0.85853234  0.87516764     0.08100
Br1538     Br  0.46998132  0.86147364  0.84962056    -0.02500
C1539       C  0.09743861  0.93777349  0.82327074    -0.09100
C1540       C  0.08345675  0.95431808  0.81394342     0.07100
C1541       C  0.09145705  0.98291465  0.82307930    -0.02900
C1542       C  0.11249027  0.99416365  0.84175609    -0.07300
C1543       C  0.12780340  0.97826791  0.85034021     0.06200
C1544       C  0.11966081  0.94947316  0.84091098    -0.02300
Br1545     Br  0.13962385  0.92564823  0.84928007    -0.02000
H1546       H  0.09169971  0.91587153  0.81609542     0.10100
H1547       H  0.11767931  0.01594298  0.84891342     0.08100
Br1548     Br  0.07546654  0.00786751  0.80943325    -0.02500
C1549       C  0.10144021  0.93517647  0.67695449    -0.09100
C1550       C  0.08376237  0.94928326  0.68475072     0.07100
C1551       C  0.08692663  0.97508634  0.67287607    -0.02900
C1552       C  0.10577158  0.98497457  0.65227168    -0.07300
C1553       C  0.12395909  0.97122055  0.64469513     0.06200
C1554       C  0.12211937  0.94645281  0.65768649    -0.02300
Br1555     Br  0.14904692  0.92876996  0.65155536    -0.02000
H1556       H  0.09967784  0.91573656  0.68638978     0.10100
H1557       H  0.10730351  0.50434182  0.64285213     0.08100
Br1558     Br  0.06681456  0.49807384  0.68475640    -0.02500
C1559       C  0.40418655  0.85794765  0.69403283    -0.09100
C1560       C  0.43234069  0.85948998  0.68790899     0.07100
C1561       C  0.43708865  0.85095596  0.66378513    -0.02900
C1562       C  0.41615148  0.84647863  0.64551163    -0.07300
C1563       C  0.38877793  0.84716516  0.65125089     0.06200
C1564       C  0.38195958  0.84978888  0.67641975    -0.02300
Br1565     Br  0.34234458  0.83857833  0.68860628    -0.02000
H1566       H  0.39920352  0.86272938  0.71271849     0.10100
H1567       H  0.42153111  0.84274143  0.62665305     0.08100
Br1568     Br  0.47133003  0.84440185  0.65490330    -0.02500
C1569       C  0.06428441  0.65471846  0.81947005    -0.09100
C1570       C  0.05669536  0.62496766  0.81469048     0.07100
C1571       C  0.03373287  0.60372227  0.82855404    -0.02900
C1572       C  0.02045745  0.61253573  0.84796553    -0.07300
C1573       C  0.02668593  0.64212950  0.85193188     0.06200
C1574       C  0.04882465  0.66338722  0.83729293    -0.02300
Br1575     Br  0.05785248  0.70429716  0.83985815    -0.02000
H1576       H  0.08154351  0.67121750  0.80853538     0.10100
H1577       H  0.50496438  0.59601196  0.85977628     0.08100
Br1578     Br  0.01853112  0.56257966  0.82111317    -0.02500
C1579       C  0.16856458  0.54777463  0.80144063    -0.09100
C1580       C  0.16760832  0.57452024  0.80793205     0.07100
C1581       C  0.17608613  0.58615086  0.83177664    -0.02900
C1582       C  0.17916418  0.56847221  0.84991497    -0.07300
C1583       C  0.17698061  0.54029650  0.84407003     0.06200
C1584       C  0.17482561  0.53143789  0.81908622    -0.02300
Br1585     Br  0.18073878  0.49787089  0.80813190    -0.02000
H1586       H  0.16357367  0.53912822  0.78280192     0.10100
H1587       H  0.18230694  0.57648935  0.86881827     0.08100
Br1588     Br  0.18151749  0.62512624  0.84078018    -0.02500
C1589       C  0.16932013  0.58016861  0.66096065    -0.09100
C1590       C  0.16180171  0.56845572  0.68469724     0.07100
C1591       C  0.16180918  0.54099923  0.68936187    -0.02900
C1592       C  0.16764788  0.52538824  0.67003603    -0.07300
C1593       C  0.16929446  0.53456198  0.64547917     0.06200
C1594       C  0.17093534  0.56284960  0.64111859    -0.02300
Br1595     Br  0.17037214  0.57786715  0.60883863    -0.02000
H1596       H  0.16991128  0.60147143  0.65732142     0.10100
H1597       H  0.16787998  0.50451793  0.67396076     0.08100
Br1598     Br  0.14991832  0.52158869  0.72057708    -0.02500
C1599       C  0.02146026  0.61466063  0.65270199    -0.09100
C1600       C  0.02795427  0.64435859  0.64969011     0.07100
C1601       C  0.04903103  0.66530818  0.66508845    -0.02900
C1602       C  0.06386895  0.65637953  0.68232336    -0.07300
C1603       C  0.05635482  0.62654902  0.68591624     0.06200
C1604       C  0.03367730  0.60555951  0.67185206    -0.02300
Br1605     Br  0.01772497  0.56441915  0.67874429    -0.02000
H1606       H  0.00666896  0.59833310  0.64030904     0.10100
H1607       H  0.08066886  0.67269663  0.69358958     0.08100
Br1608     Br  0.05734943  0.70610080  0.66410270    -0.02500
C1609       C  0.43794711  0.57016420  0.83561480    -0.09100
C1610       C  0.43200902  0.58068217  0.81343536     0.07100
C1611       C  0.43894541  0.61088651  0.81185806    -0.02900
C1612       C  0.45458956  0.63002833  0.83091721    -0.07300
C1613       C  0.46096212  0.61920805  0.85260353     0.06200
C1614       C  0.45031410  0.58886232  0.85560634    -0.02300
Br1615     Br  0.95248690  0.57207055  0.88665142    -0.02000
H1616       H  0.43245831  0.54711805  0.83765564     0.10100
H1617       H  0.46122679  0.65332176  0.82908021     0.08100
Br1618     Br  0.42556758  0.62684807  0.78538213    -0.02500
C1619       C  0.33120364  0.91355113  0.82056376    -0.09100
C1620       C  0.35972825  0.93509492  0.81584762     0.07100
C1621       C  0.38304666  0.93719384  0.83111738    -0.02900
C1622       C  0.37798621  0.91651461  0.84958879    -0.07300
C1623       C  0.34977470  0.89376965  0.85339935     0.06200
C1624       C  0.32593180  0.89328984  0.83946326    -0.02300
Br1625     Br  0.28625921  0.86376166  0.84361492    -0.02000
H1626       H  0.31309663  0.91216345  0.80916865     0.10100
H1627       H  0.39630222  0.91773737  0.86063013     0.08100
Br1628     Br  0.42240239  0.96726115  0.82682672    -0.02500
C1629       C  0.44033005  0.60738278  0.68856116    -0.09100
C1630       C  0.43395989  0.57775185  0.68367887     0.07100
C1631       C  0.44120204  0.57012574  0.65987053    -0.02900
C1632       C  0.45319293  0.59156000  0.64179288    -0.07300
C1633       C  0.46241658  0.62117994  0.64778740     0.06200
C1634       C  0.45582487  0.62911497  0.67135946    -0.02300
Br1635     Br  0.46910635  0.66928093  0.68131630    -0.02000
H1636       H  0.43464944  0.61392871  0.70636921     0.10100
H1637       H  0.45856392  0.58545488  0.62366636     0.08100
Br1638     Br  0.44021484  0.53248528  0.65139316    -0.02500
C1639       C  0.33413125  0.88916192  0.65912828    -0.09100
C1640       C  0.35947091  0.88936246  0.64697969     0.07100
C1641       C  0.38728322  0.91194642  0.65255888    -0.02900
C1642       C  0.38961504  0.93192852  0.67165091    -0.07300
C1643       C  0.36445859  0.93027652  0.68495699     0.06200
C1644       C  0.33647751  0.90919948  0.67811607    -0.02300
Br1645     Br  0.30098904  0.90725162  0.69399661    -0.02000
H1646       H  0.31246535  0.87258218  0.65443912     0.10100
H1647       H  0.41114413  0.94892317  0.67611466     0.08100
Br1648     Br  0.42219927  0.91768320  0.63355942    -0.02500
C1649       C  0.44176067  0.66676260  0.53657326    -0.09100
C1650       C  0.42569223  0.68253737  0.54465925     0.07100
C1651       C  0.43387079  0.69907473  0.56673269    -0.02900
C1652       C  0.45633292  0.69782108  0.58104898    -0.07300
C1653       C  0.47050961  0.67994136  0.57392548     0.06200
C1654       C  0.46362780  0.66496339  0.55113507    -0.02300
Br1655     Br  0.97976978  0.63801577  0.54090519    -0.02000
H1656       H  0.43551520  0.65368221  0.51978356     0.10100
H1657       H  0.46101652  0.70885392  0.59886446     0.08100
Br1658     Br  0.41209353  0.71965945  0.58027062    -0.02500
C1659       C  0.33434287  0.57143522  0.46445514    -0.09100
C1660       C  0.31791961  0.58758796  0.45998975     0.07100
C1661       C  0.29878892  0.57964067  0.43958464    -0.02900
C1662       C  0.29752732  0.55676367  0.42380277    -0.07300
C1663       C  0.31463589  0.54125664  0.42814573     0.06200
C1664       C  0.33308687  0.54881258  0.44880113    -0.02300
Br1665     Br  0.36016800  0.03180268  0.45510687    -0.02000
H1666       H  0.34888637  0.57669210  0.48011385     0.10100
H1667       H  0.28415152  0.55191846  0.40742758     0.08100
Br1668     Br  0.27551810  0.60013466  0.43101607    -0.02500
C1669       C  0.23502751  0.52650778  0.56444812    -0.09100
C1670       C  0.20558126  0.52194787  0.56351856     0.07100
C1671       C  0.19793303  0.54035836  0.54876160    -0.02900
C1672       C  0.22007597  0.56470551  0.53712394    -0.07300
C1673       C  0.25008009  0.57072870  0.53959985     0.06200
C1674       C  0.25718747  0.55018481  0.55263667    -0.02300
Br1675     Br  0.29650641  0.55332272  0.55804627    -0.02000
H1676       H  0.24123452  0.51316172  0.57643495     0.10100
H1677       H  0.21384046  0.57931445  0.52675096     0.08100
Br1678     Br  0.15746009  0.53413522  0.54604493    -0.02500
C1679       C  0.41776275  0.73285417  0.42613379    -0.09100
C1680       C  0.41368445  0.74477797  0.44879624     0.07100
C1681       C  0.43558175  0.77186027  0.45668312    -0.02900
C1682       C  0.45871496  0.78836314  0.44047413    -0.07300
C1683       C  0.46184648  0.77731068  0.41707316     0.06200
C1684       C  0.44214642  0.74845966  0.41072022    -0.02300
Br1685     Br  0.44778492  0.72967106  0.38114964    -0.02000
H1686       H  0.40184841  0.71136901  0.42036536     0.10100
H1687       H  0.47318014  0.81050309  0.44572022     0.08100
Br1688     Br  0.43408414  0.78788015  0.48881076    -0.02500
C1689       C  0.21006953  0.63941138  0.45966044    -0.09100
C1690       C  0.23489549  0.66663272  0.45960006     0.07100
C1691       C  0.23365336  0.68949074  0.44537641    -0.02900
C1692       C  0.20894672  0.68427234  0.43093011    -0.07300
C1693       C  0.18471120  0.65686959  0.43044566     0.06200
C1694       C  0.18515226  0.63450736  0.44550697    -0.02300
Br1695     Br  0.15203883  0.59696788  0.44774954    -0.02000
H1696       H  0.21004232  0.62168272  0.47066018     0.10100
H1697       H  0.20914867  0.70155245  0.41924374     0.08100
Br1698     Br  0.26520947  0.72810236  0.44313380    -0.02500
C1699       C  0.33352307  0.75005590  0.55903533    -0.09100
C1700       C  0.34196190  0.75889737  0.53453602     0.07100
C1701       C  0.35030049  0.78861991  0.52867070    -0.02900
C1702       C  0.35035674  0.80859271  0.54717953    -0.07300
C1703       C  0.34216351  0.79971277  0.57173012     0.06200
C1704       C  0.33326895  0.76991563  0.57741223    -0.02300
Br1705     Br  0.31920715  0.75462926  0.60972278    -0.02000
H1706       H  0.32659553  0.72733929  0.56390407     0.10100
H1707       H  0.35773172  0.83142474  0.54251303     0.08100
Br1708     Br  0.36410322  0.80392932  0.49630144    -0.02500
C1709       C  0.22159417  0.57817871  0.95301077    -0.09100
C1710       C  0.25197146  0.58567159  0.95324823     0.07100
C1711       C  0.26310730  0.56763779  0.94061894    -0.02900
C1712       C  0.24407918  0.54362123  0.92660154    -0.07300
C1713       C  0.21382757  0.53689268  0.92547722     0.06200
C1714       C  0.20254310  0.55395367  0.93941834    -0.02300
Br1715     Br  0.16172013  0.54702432  0.93815943    -0.02000
H1716       H  0.21279965  0.59180295  0.96278091     0.10100
H1717       H  0.25319166  0.53131404  0.91536334     0.08100
Br1718     Br  0.30452774  0.57679520  0.93993217    -0.02500
C1719       C  0.19500611  0.65303717  0.04722865    -0.09100
C1720       C  0.20210954  0.65658518  0.07234631     0.07100
C1721       C  0.23101671  0.66112289  0.07906705    -0.02900
C1722       C  0.25157250  0.66111869  0.06098567    -0.07300
C1723       C  0.24443053  0.65730585  0.03586238     0.06200
C1724       C  0.21573497  0.65351493  0.02906309    -0.02300
Br1725     Br  0.20238960  0.64679265  0.99554816    -0.02000
H1726       H  0.17283707  0.64884220  0.04172973     0.10100
H1727       H  0.27350873  0.66460774  0.06661697     0.08100
Br1728     Br  0.24430613  0.66853610  0.11261804    -0.02500
C1729       C  0.42312924  0.68786944  0.94141955    -0.09100
C1730       C  0.42403980  0.67958117  0.96591261     0.07100
C1731       C  0.44686929  0.67112759  0.97220673    -0.02900
C1732       C  0.46587177  0.66849821  0.95388213    -0.07300
C1733       C  0.46369317  0.67509909  0.92926320     0.06200
C1734       C  0.44284354  0.68602947  0.92329244    -0.02300
Br1735     Br  0.44083313  0.69939845  0.89070796    -0.02000
H1736       H  0.40672506  0.69539480  0.93617154     0.10100
H1737       H  0.48208697  0.66057800  0.95883551     0.08100
Br1738     Br  0.45472961  0.66358733  0.00534953    -0.02500
C1739       C  0.34087374  0.55990061  0.03465332    -0.09100
C1740       C  0.32245150  0.57356536  0.04169127     0.07100
C1741       C  0.30096789  0.56109224  0.06055637    -0.02900
C1742       C  0.30016038  0.53698193  0.07336366    -0.07300
C1743       C  0.32105603  0.52577533  0.06823039     0.06200
C1744       C  0.34063729  0.53646414  0.04802068    -0.02300
Br1745     Br  0.37018688  0.02263121  0.04021555    -0.02000
H1746       H  0.35721069  0.56897841  0.01997096     0.10100
H1747       H  0.28548378  0.52918657  0.08929410     0.08100
Br1748     Br  0.27608478  0.57896441  0.07296476    -0.02500
C1749       C  0.42873746  0.78002766  0.04358504    -0.09100
C1750       C  0.42831044  0.75210498  0.04573790     0.07100
C1751       C  0.45174593  0.74976374  0.05865665    -0.02900
C1752       C  0.47277245  0.77414547  0.07073967    -0.07300
C1753       C  0.47209959  0.80148901  0.06968868     0.06200
C1754       C  0.45046422  0.80455693  0.05518148    -0.02300
Br1755     Br  0.44997104  0.84183512  0.05016427    -0.02000
H1756       H  0.41185075  0.78282007  0.03318569     0.10100
H1757       H  0.48929443  0.77148144  0.08174794     0.08100
Br1758     Br  0.45780224  0.71464459  0.06053793    -0.02500
C1759       C  0.31184925  0.78229867  0.93125138    -0.09100
C1760       C  0.33869478  0.80604310  0.92603356     0.07100
C1761       C  0.36473755  0.80696342  0.93664294    -0.02900
C1762       C  0.36364152  0.78376671  0.95123474    -0.07300
C1763       C  0.33675380  0.75951042  0.95605987     0.06200
C1764       C  0.31047999  0.75939039  0.94615462    -0.02300
Br1765     Br  0.27153942  0.72837576  0.95067769    -0.02000
H1766       H  0.29179605  0.78104030  0.92297006     0.10100
H1767       H  0.38390798  0.78482340  0.95892738     0.08100
Br1768     Br  0.40230355  0.83993680  0.93237945    -0.02500
O1769       O  0.85627335  0.11944044  0.02681061    -0.80800
O1770       O  0.85929341  0.23073207  0.97550416    -0.65500
O1771       O  0.84646619  0.17005426  0.02254330    -1.12100
C1772       C  0.77166681  0.11309995  0.96561263     1.06000
O1773       O  0.81164733  0.21685211  0.98002110    -0.78700
O1774       O  0.76724132  0.16850718  0.99627197    -0.66300
Ni1775     Ni  0.87690712  0.16070471  0.03403679     1.34900
C1776       C  0.76729741  0.15804707  0.01728412     0.84800
O1777       O  0.88684990  0.22948704  0.01864294    -0.79300
O1778       O  0.90026453  0.20098217  0.04220233    -0.89600
C1779       C  0.83615807  0.23467946  0.97111777     0.84400
O1780       O  0.89815807  0.16496436  0.00383159    -0.67800
O1781       O  0.77364317  0.13728077  0.95683492    -0.87000
C1782       C  0.90118244  0.17946615  0.98435069     0.85200
C1783       C  0.90359684  0.22603390  0.03474940     1.06800
H1784       H  0.83381183  0.16503720  0.96679916     0.38600
O1785       O  0.82482928  0.17025753  0.98083477    -1.09700
O1786       O  0.78631171  0.14862130  0.02303097    -0.66400
Ni1787     Ni  0.81561896  0.14032694  0.00430982     1.26300
O1788       O  0.88554710  0.19347349  0.98017098    -0.66600
O1789       O  0.78560929  0.11131206  0.98451500    -0.78900
C1790       C  0.82944203  0.10280232  0.03182325     0.84600
O1791       O  0.80919897  0.11092167  0.02798883    -0.66100
Ni1792     Ni  0.79333150  0.17726217  0.96836403     1.27400
Ni1793     Ni  0.85551599  0.20074341  0.99915061     1.26100
H1794       H  0.83779526  0.17525322  0.03714882     0.39100
O1795       O  0.78136912  0.19554065  0.47856997    -0.80800
O1796       O  0.88876527  0.19540118  0.52780877    -0.65500
O1797       O  0.82751448  0.17926500  0.48133298    -1.12100
C1798       C  0.77381055  0.09788775  0.52900203     1.06000
O1799       O  0.88157153  0.14893751  0.52750521    -0.78700
O1800       O  0.84293991  0.12058391  0.49190729    -0.66300
Ni1801     Ni  0.82179953  0.21034187  0.46687219     1.34900
C1802       C  0.82078385  0.11116129  0.47793713     0.84800
O1803       O  0.88776407  0.21885303  0.48424713    -0.79300
O1804       O  0.86170609  0.22578961  0.45369912    -0.89600
C1805       C  0.89713906  0.17564634  0.53278346     0.84400
O1806       O  0.83349144  0.23794971  0.49399580    -0.67800
O1807       O  0.79911301  0.09778321  0.52698394    -0.87000
C1808       C  0.84159705  0.23659700  0.51585059     0.85200
C1809       C  0.88609806  0.22901198  0.46322752     1.06800
H1810       H  0.82592753  0.16408490  0.53865877     0.38600
O1811       O  0.82953624  0.15733157  0.52270087    -1.09700
O1812       O  0.80018766  0.11953782  0.48079866    -0.66400
Ni1813     Ni  0.79708400  0.15033080  0.50118566     1.26300
O1814       O  0.84880553  0.21646200  0.52260655    -0.66600
O1815       O  0.76908523  0.11975367  0.52204615    -0.78900
C1816       C  0.76198053  0.17006664  0.47324089     0.84600
O1817       O  0.76570731  0.14760701  0.47963012    -0.66100
Ni1818     Ni  0.83967973  0.12543307  0.52647020     1.27400
Ni1819     Ni  0.85862617  0.18856529  0.50415819     1.26100
H1820       H  0.83213068  0.16933650  0.46757778     0.39100
N1821       N  0.89360506  0.00395715  0.71232427    -0.36600
N1822       N  0.86811714  0.46011721  0.74982988    -0.57100
N1823       N  0.89025311  0.00695368  0.78574764    -0.36600
N1824       N  0.91446766  0.05082812  0.74847215    -0.57100
C1825       C  0.87460793  0.48056158  0.69962239     0.27000
C1826       C  0.89793875  0.02801917  0.69923278     0.27000
C1827       C  0.87123494  0.48444707  0.79932865     0.27000
C1828       C  0.89476094  0.03186462  0.79829518     0.27000
C1829       C  0.86736192  0.44282601  0.73026040     0.35600
C1830       C  0.86595298  0.44443238  0.77029520     0.35600
C1831       C  0.93127760  0.06337663  0.72842266     0.35600
C1832       C  0.92982219  0.06514454  0.76845027     0.35600
C1833       C  0.86589040  0.48970750  0.67854704    -0.21800
C1834       C  0.88002979  0.01990746  0.67865954    -0.21800
C1835       C  0.86273633  0.49502934  0.82045734    -0.21800
C1836       C  0.87722501  0.02511377  0.81959872    -0.21800
C1837       C  0.86405434  0.41564438  0.73823833    -0.22900
C1838       C  0.86318893  0.41667855  0.76374650    -0.22900
C1839       C  0.95789135  0.08564464  0.73566077    -0.22900
C1840       C  0.95700078  0.08669686  0.76115752    -0.22900
C1841       C  0.86816437  0.45141534  0.70549219    -0.18200
C1842       C  0.92099479  0.05590538  0.70400031    -0.18200
C1843       C  0.91805762  0.05939017  0.79277620    -0.18200
C1844       C  0.86518387  0.45493488  0.79456575    -0.18200
H1845       H  0.85143700  0.47601704  0.66436430     0.14700
H1846       H  0.87889182  0.03408462  0.66436121     0.14700
H1847       H  0.84847150  0.48234318  0.83531789     0.14700
H1848       H  0.87638520  0.04017868  0.83378254     0.14700
H1849       H  0.86233591  0.39708956  0.72691018     0.12900
H1850       H  0.86074657  0.39908485  0.77601320     0.12900
H1851       H  0.97594373  0.09966664  0.72386695     0.12900
H1852       H  0.97418253  0.10170649  0.77290245     0.12900
H1853       H  0.90644930  0.00313561  0.72696444     0.26200
H1854       H  0.90327428  0.00508347  0.77108000     0.26200
N1855       N  0.61267694  0.10302476  0.71044192    -0.36600
N1856       N  0.57869330  0.11526508  0.74939948    -0.57100
N1857       N  0.61463844  0.10463789  0.78600389    -0.36600
N1858       N  0.64726456  0.09110658  0.74703169    -0.57100
C1859       C  0.59099583  0.10479393  0.69701583     0.27000
C1860       C  0.62466871  0.08789114  0.69670421     0.27000
C1861       C  0.59227591  0.10475919  0.80054621     0.27000
C1862       C  0.62821466  0.09097919  0.79863345     0.27000
C1863       C  0.56738669  0.12331533  0.72997028     0.35600
C1864       C  0.56738575  0.12268712  0.76992239     0.35600
C1865       C  0.66253381  0.09034193  0.72644585     0.35600
C1866       C  0.66451461  0.09254002  0.76617628     0.35600
C1867       C  0.59017133  0.09183420  0.67405450    -0.21800
C1868       C  0.61021868  0.07993434  0.67433040    -0.21800
C1869       C  0.59235517  0.09200479  0.82298230    -0.21800
C1870       C  0.61414550  0.08231892  0.82141155    -0.21800
C1871       C  0.54814364  0.13506202  0.73821774    -0.22900
C1872       C  0.54810137  0.13461586  0.76346768    -0.22900
C1873       C  0.69011286  0.09217447  0.73240618    -0.22900
C1874       C  0.69137547  0.09357002  0.75775025    -0.22900
C1875       C  0.57225950  0.11810677  0.70487945    -0.18200
C1876       C  0.64971355  0.08309061  0.70305836    -0.18200
C1877       C  0.65400802  0.08774944  0.79072206    -0.18200
C1878       C  0.57254319  0.11703116  0.79440707    -0.18200
H1879       H  0.57640446  0.09047620  0.65856653     0.14700
H1880       H  0.61385414  0.06736355  0.65929652     0.14700
H1881       H  0.57818485  0.08955594  0.83896775     0.14700
H1882       H  0.61917060  0.07065240  0.83581158     0.14700
H1883       H  0.53473795  0.14238202  0.72727911     0.12900
H1884       H  0.53470653  0.14159364  0.77558569     0.12900
H1885       H  0.70678654  0.09095807  0.71987673     0.12900
H1886       H  0.70926635  0.09370475  0.76874225     0.12900
H1887       H  0.62071015  0.11418403  0.72689846     0.26200
H1888       H  0.62209267  0.11601715  0.76959997     0.26200
N1889       N  0.50901029  0.40887227  0.78774197    -0.36600
N1890       N  0.55346292  0.43303088  0.74965426    -0.57100
N1891       N  0.50940445  0.40294812  0.71242364    -0.36600
N1892       N  0.96516162  0.37942336  0.75052644    -0.57100
C1893       C  0.53081057  0.43045092  0.80022429     0.27000
C1894       C  0.98329729  0.40316546  0.80007511     0.27000
C1895       C  0.53126647  0.42299109  0.69865499     0.27000
C1896       C  0.98407449  0.39447613  0.69959410     0.27000
C1897       C  0.57114732  0.44015526  0.76955401     0.35600
C1898       C  0.57124962  0.43774507  0.72946240     0.35600
C1899       C  0.95071239  0.36576341  0.77118290     0.35600
C1900       C  0.95087223  0.36231161  0.73125623     0.35600
C1901       C  0.51886415  0.43860622  0.82076970    -0.21800
C1902       C  0.98875474  0.42206300  0.82022776    -0.21800
C1903       C  0.51972049  0.42693032  0.67665554    -0.21800
C1904       C  0.98985179  0.40980048  0.67766947    -0.21800
C1905       C  0.60040003  0.44953929  0.76199259    -0.22900
C1906       C  0.60046163  0.44800387  0.73657970    -0.22900
C1907       C  0.92757257  0.33928322  0.76507074    -0.22900
C1908       C  0.92762980  0.33714213  0.73967933    -0.22900
C1909       C  0.56125049  0.44133422  0.79407840    -0.18200
C1910       C  0.95591413  0.37929801  0.79477911    -0.18200
C1911       C  0.95662207  0.37150632  0.70646310    -0.18200
C1912       C  0.56153415  0.43617135  0.70489331    -0.18200
H1913       H  0.53048377  0.45470282  0.83476761     0.14700
H1914       H  0.97290090  0.42305011  0.83376883     0.14700
H1915       H  0.53134596  0.44053625  0.66124017     0.14700
H1916       H  0.97442184  0.40814471  0.66338475     0.14700
H1917       H  0.61974509  0.45763906  0.77347743     0.12900
H1918       H  0.61990689  0.45454478  0.72475403     0.12900
H1919       H  0.91167889  0.32369270  0.77753624     0.12900
H1920       H  0.91184338  0.31960352  0.72867179     0.12900
H1921       H  0.51206012  0.39623026  0.77344335     0.26200
H1922       H  0.51233383  0.39314156  0.72827142     0.26200
C1923       C  0.51735719  0.18069513  0.59244773     0.02300
C1924       C  0.98637786  0.17172755  0.59289329     0.02300
C1925       C  0.96903175  0.15286594  0.61158113    -0.18200
C1926       C  0.98184918  0.14317341  0.62999851     0.02300
C1927       C  0.51288089  0.15324189  0.63034412     0.02300
C1928       C  0.53012581  0.17195334  0.61170404    -0.18200
H1929       H  0.55393366  0.17949201  0.61200923     0.04300
H1930       H  0.94518607  0.14510291  0.61145599     0.04300
C1931       C  0.68622259  0.00660829  0.58452288     0.02300
C1932       C  0.66658213  0.47664490  0.58460851     0.02300
C1933       C  0.64625100  0.46601221  0.60434403    -0.18200
C1934       C  0.64612388  0.48411570  0.62441336     0.02300
C1935       C  0.66738520  0.01379364  0.62488497     0.02300
C1936       C  0.68750794  0.02407462  0.60519182    -0.18200
H1937       H  0.70446130  0.04634858  0.60570359     0.04300
H1938       H  0.63067625  0.44316522  0.60432743     0.04300
C1939       C  0.83972358  0.32787099  0.90737436     0.02300
C1940       C  0.82273706  0.34439469  0.90925072     0.02300
C1941       C  0.82649023  0.36549215  0.89129232    -0.18200
C1942       C  0.84593865  0.37006505  0.87105134     0.02300
C1943       C  0.86181808  0.35248731  0.86847216     0.02300
C1944       C  0.85794094  0.33140432  0.88644769    -0.18200
H1945       H  0.86977758  0.31772522  0.88432154     0.04300
H1946       H  0.81431700  0.37886520  0.89332609     0.04300
C1947       C  0.84549467  0.32217443  0.59137824     0.02300
C1948       C  0.83228247  0.34205867  0.58975649     0.02300
C1949       C  0.83771062  0.36352560  0.60820508    -0.18200
C1950       C  0.85580272  0.36599142  0.62835484     0.02300
C1951       C  0.86857704  0.34568995  0.63059896     0.02300
C1952       C  0.86367064  0.32460589  0.61164584    -0.18200
H1953       H  0.87409159  0.30968438  0.61269234     0.04300
H1954       H  0.82704068  0.37826516  0.60716336     0.04300
C1955       C  0.67474775  0.48959132  0.90784130     0.02300
C1956       C  0.69617701  0.01853879  0.90488694     0.02300
C1957       C  0.69735691  0.03307087  0.88294943    -0.18200
C1958       C  0.67603214  0.02082464  0.86464897     0.02300
C1959       C  0.65276038  0.49234767  0.86819090     0.02300
C1960       C  0.65295696  0.47715923  0.88974171    -0.18200
H1961       H  0.63576777  0.45537509  0.89266800     0.04300
H1962       H  0.71430523  0.05520456  0.88079832     0.04300
C1963       C  0.51229508  0.17739408  0.91018360     0.02300
C1964       C  0.98100164  0.16756535  0.90976715     0.02300
C1965       C  0.96497754  0.14821586  0.89086982    -0.18200
C1966       C  0.97915127  0.13964474  0.87185983     0.02300
C1967       C  0.51027207  0.15036518  0.87161334     0.02300
C1968       C  0.52627341  0.16899624  0.89071767    -0.18200
H1969       H  0.55016695  0.17746264  0.89015246     0.04300
H1970       H  0.94104840  0.13950445  0.89101317     0.04300
O1971       O  0.61572051  0.34690420  0.47402589    -0.80800
O1972       O  0.72920744  0.35294066  0.52343393    -0.65500
O1973       O  0.66777705  0.33884617  0.47685512    -1.12100
C1974       C  0.61196982  0.26208034  0.53282501     1.06000
O1975       O  0.71778523  0.30578623  0.52014845    -0.78700
O1976       O  0.66971121  0.26141630  0.50174950    -0.66300
Ni1977     Ni  0.65703289  0.36845138  0.46593264     1.34900
C1978       C  0.65818810  0.26141435  0.48115483     0.84800
O1979       O  0.72713653  0.38108974  0.48097948    -0.79300
O1980       O  0.69725180  0.39257064  0.45723373    -0.89600
C1981       C  0.73439629  0.33093558  0.52855486     0.84400
O1982       O  0.66125207  0.38915350  0.49616108    -0.67800
O1983       O  0.63673154  0.26459991  0.54113461    -0.87000
C1984       C  0.67477917  0.39074753  0.51602065     0.85200
C1985       C  0.72290948  0.39723015  0.46481070     1.06800
H1986       H  0.66320729  0.32480859  0.53249300     0.38600
O1987       O  0.66891743  0.31661857  0.51814138    -1.09700
O1988       O  0.64754199  0.27947326  0.47592654    -0.66400
Ni1989     Ni  0.63834527  0.30741536  0.49505165     1.26300
O1990       O  0.68946349  0.37580655  0.51982461    -0.66600
O1991       O  0.60955664  0.27666054  0.51465945    -0.78900
C1992       C  0.59995899  0.32066519  0.46760469     0.84600
O1993       O  0.60850118  0.30083674  0.47146372    -0.66100
Ni1994     Ni  0.67720650  0.28593135  0.53037353     1.27400
Ni1995     Ni  0.69887501  0.34831244  0.49999420     1.26100
H1996       H  0.67334475  0.33093297  0.46222169     0.39100
O1997       O  0.69150413  0.28062129  0.02302763    -0.80800
O1998       O  0.69230645  0.38852178  0.97222655    -0.65500
O1999       O  0.67898011  0.32858355  0.01937509    -1.12100
C2000       C  0.60007858  0.27214651  0.96532959     1.06000
O2001       O  0.64483473  0.37759967  0.97373940    -0.78700
O2002       O  0.60279346  0.33044469  0.99439898    -0.66300
Ni2003     Ni  0.71049722  0.32138133  0.03180349     1.34900
C2004       C  0.60215180  0.31940902  0.01536738     0.84800
O2005       O  0.71707331  0.38801244  0.01569835    -0.79300
O2006       O  0.73143017  0.36182605  0.04133275    -0.89600
C2007       C  0.67101219  0.39512439  0.96774737     0.84400
O2008       O  0.73428078  0.32789854  0.00265946    -0.67800
O2009       O  0.60476696  0.29668401  0.95585593    -0.87000
C2010       C  0.73439251  0.33949231  0.98210765     0.85200
C2011       C  0.73250562  0.38599366  0.03344067     1.06800
H2012       H  0.66564730  0.32312978  0.96369116     0.38600
O2013       O  0.65674469  0.32843460  0.97781857    -1.09700
O2014       O  0.61915264  0.30731874  0.02071938    -0.66400
Ni2015     Ni  0.64774752  0.29818047  0.00161917     1.26300
O2016       O  0.71691580  0.35116267  0.97721367    -0.66600
O2017       O  0.61549432  0.26922558  0.98288318    -0.78900
C2018       C  0.66583763  0.26331778  0.03056581     0.84600
O2019       O  0.64361133  0.26861726  0.02571272    -0.66100
Ni2020     Ni  0.62611777  0.33671056  0.96516091     1.27400
Ni2021     Ni  0.68721583  0.35877427  0.99596898     1.26100
H2022       H  0.67031310  0.33386407  0.03370577     0.39100
N2023       N  0.98962042  0.10362681  0.21004886    -0.36600
N2024       N  0.53193441  0.11712019  0.24898328    -0.57100
N2025       N  0.98341960  0.10269858  0.28517459    -0.36600
N2026       N  0.94168798  0.09352913  0.24596965    -0.57100
C2027       C  0.51537362  0.11652909  0.19708668     0.27000
C2028       C  0.96778453  0.10253978  0.19523814     0.27000
C2029       C  0.50745878  0.11560685  0.29967591     0.27000
C2030       C  0.95932688  0.10032267  0.29877261     0.27000
C2031       C  0.54802300  0.11398753  0.22962955     0.35600
C2032       C  0.54505981  0.11416861  0.26963192     0.35600
C2033       C  0.92550030  0.08567610  0.22511120     0.35600
C2034       C  0.92213723  0.08565577  0.26524345     0.35600
C2035       C  0.50971278  0.12436626  0.17399152    -0.21800
C2036       C  0.97958730  0.11496141  0.17267230    -0.21800
C2037       C  0.49861860  0.12217092  0.32249707    -0.21800
C2038       C  0.96844920  0.11162826  0.32230280    -0.21800
C2039       C  0.57124747  0.10864327  0.23801697    -0.22900
C2040       C  0.56941771  0.10887812  0.26341140    -0.22900
C2041       C  0.89568966  0.07455502  0.23121154    -0.22900
C2042       C  0.89357312  0.07502229  0.25649407    -0.22900
C2043       C  0.54311240  0.11831132  0.20469591    -0.18200
C2044       C  0.93726371  0.08815845  0.20067676    -0.18200
C2045       C  0.92947790  0.08699064  0.29063821    -0.18200
C2046       C  0.53650988  0.11850174  0.29390507    -0.18200
H2047       H  0.52548323  0.13489649  0.15926747     0.14700
H2048       H  0.96762380  0.11682935  0.15687046     0.14700
H2049       H  0.51228328  0.13254238  0.33820052     0.14700
H2050       H  0.95558408  0.11263262  0.33820508     0.14700
H2051       H  0.58800541  0.10555504  0.22694573     0.12900
H2052       H  0.58441978  0.10599212  0.27597738     0.12900
H2053       H  0.87715711  0.06640742  0.21887690     0.12900
H2054       H  0.87316831  0.06743945  0.26718905     0.12900
H2055       H  0.98647002  0.09225362  0.22646135     0.26200
H2056       H  0.98293501  0.09256176  0.26820697     0.26200
N2057       N  0.90386707  0.40208407  0.28966737    -0.36600
N2058       N  0.91990406  0.37642033  0.24841024    -0.57100
N2059       N  0.90170452  0.40944438  0.21606821    -0.36600
N2060       N  0.88467723  0.43536800  0.25724758    -0.57100
C2061       C  0.92123789  0.39080800  0.29973023     0.27000
C2062       C  0.90407532  0.42372312  0.30482691     0.27000
C2063       C  0.92223505  0.40495136  0.20221070     0.27000
C2064       C  0.89880730  0.43251765  0.20657330     0.27000
C2065       C  0.91841033  0.35715945  0.26578702     0.35600
C2066       C  0.92031138  0.36387524  0.22638906     0.35600
C2067       C  0.87267146  0.43832225  0.27905826     0.35600
C2068       C  0.86813868  0.43901280  0.23938042     0.35600
C2069       C  0.93335239  0.40601330  0.32128938    -0.21800
C2070       C  0.92181539  0.42624778  0.32489076    -0.21800
C2071       C  0.93327329  0.42618183  0.18406547    -0.21800
C2072       C  0.91796035  0.44335281  0.18657833    -0.21800
C2073       C  0.91665525  0.33142683  0.25476450    -0.22900
C2074       C  0.91792150  0.33574054  0.22957448    -0.22900
C2075       C  0.84816957  0.44395535  0.27503229    -0.22900
C2076       C  0.84483247  0.44354141  0.24980376    -0.22900
C2077       C  0.92360485  0.36530117  0.29084333    -0.18200
C2078       C  0.88558154  0.43819708  0.30202136    -0.18200
C2079       C  0.87652671  0.44110282  0.21418607    -0.18200
C2080       C  0.92838975  0.38024402  0.20454819    -0.18200
H2081       H  0.94782194  0.40204139  0.33376522     0.14700
H2082       H  0.92543389  0.44040394  0.34089728     0.14700
H2083       H  0.94989279  0.42856506  0.17002053     0.14700
H2084       H  0.92025908  0.46139577  0.17490232     0.14700
H2085       H  0.91618698  0.31231144  0.26386004     0.12900
H2086       H  0.91884309  0.32074802  0.21535780     0.12900
H2087       H  0.83426659  0.44833339  0.28857585     0.12900
H2088       H  0.82802660  0.44744269  0.24030674     0.12900
H2089       H  0.88936282  0.39279624  0.27515201     0.26200
H2090       H  0.88738890  0.39522303  0.22914996     0.26200
C2091       C  0.81885155  0.02263180  0.40844570     0.02300
C2092       C  0.81496756  0.49370081  0.41281819     0.02300
C2093       C  0.82987778  0.48176105  0.39744402    -0.18200
C2094       C  0.84575319  0.49631488  0.37639658     0.02300
C2095       C  0.84781817  0.02470488  0.37064342     0.02300
C2096       C  0.83305354  0.03662941  0.38658353    -0.18200
H2097       H  0.83326340  0.05760981  0.38248254     0.04300
H2098       H  0.82775622  0.45988157  0.40111859     0.04300
N2099       N  0.60224152  0.48798028  0.28845738    -0.36600
N2100       N  0.62730406  0.03476350  0.25210417    -0.57100
N2101       N  0.61263864  0.49052620  0.21470982    -0.36600
N2102       N  0.59002351  0.44371865  0.25057211    -0.57100
C2103       C  0.61608140  0.01181488  0.30297939     0.27000
C2104       C  0.59679943  0.46412553  0.30232924     0.27000
C2105       C  0.63109642  0.01438237  0.20210488     0.27000
C2106       C  0.60988372  0.46689774  0.20107378     0.27000
C2107       C  0.62394307  0.04995574  0.27179013     0.35600
C2108       C  0.62967511  0.05112576  0.23195616     0.35600
C2109       C  0.57547913  0.42634205  0.26966550     0.35600
C2110       C  0.57952337  0.42782914  0.22975901     0.35600
C2111       C  0.61988081  0.00302062  0.32627758    -0.21800
C2112       C  0.60752969  0.47287997  0.32589648    -0.21800
C2113       C  0.64106823  0.00563884  0.18066851    -0.21800
C2114       C  0.62714483  0.47557698  0.17979401    -0.21800
C2115       C  0.62463433  0.07631813  0.26421922    -0.22900
C2116       C  0.62776185  0.07684937  0.23892148    -0.22900
C2117       C  0.55640732  0.39894617  0.26097239    -0.22900
C2118       C  0.55923856  0.39985559  0.23565026    -0.22900
C2119       C  0.62189710  0.04085851  0.29654968    -0.18200
C2120       C  0.58005223  0.43478610  0.29481581    -0.18200
C2121       C  0.58860622  0.43834017  0.20561669    -0.18200
C2122       C  0.63504947  0.04331549  0.20769409    -0.18200
H2123       H  0.62959513  0.01686258  0.34215387     0.14700
H2124       H  0.60604030  0.45897067  0.34133542     0.14700
H2125       H  0.65549545  0.01952424  0.16643457     0.14700
H2126       H  0.62867796  0.46168335  0.16485070     0.14700
H2127       H  0.62344199  0.09351958  0.27574819     0.12900
H2128       H  0.62924486  0.09449088  0.22714109     0.12900
H2129       H  0.54203525  0.38025367  0.27169899     0.12900
H2130       H  0.54797839  0.38186442  0.22304394     0.12900
H2131       H  0.59324204  0.48799825  0.27133433     0.26200
H2132       H  0.59851908  0.49028695  0.22924543     0.26200
C2133       C  0.81209747  0.48062877  0.09260857     0.02300
C2134       C  0.82792837  0.01068566  0.08836149     0.02300
C2135       C  0.84917929  0.02816859  0.10526786    -0.18200
C2136       C  0.85514762  0.01633621  0.12650217     0.02300
C2137       C  0.83814324  0.48601018  0.13145403     0.02300
C2138       C  0.81633048  0.46898937  0.11464614    -0.18200
H2139       H  0.80267211  0.44614931  0.11847556     0.04300
H2140       H  0.86123032  0.05140408  0.10180703     0.04300
C2141       C  0.64402058  0.16801669  0.41169478     0.02300
C2142       C  0.66083048  0.15128898  0.41222203     0.02300
C2143       C  0.65674873  0.13029720  0.39350764    -0.18200
C2144       C  0.63620996  0.12531515  0.37473736     0.02300
C2145       C  0.61870586  0.14120598  0.37472212     0.02300
C2146       C  0.62305165  0.16261254  0.39305467    -0.18200
H2147       H  0.61015779  0.17532858  0.39272522     0.04300
H2148       H  0.67018646  0.11810396  0.39320478     0.04300
C2149       C  0.65934736  0.16659392  0.09144032     0.02300
C2150       C  0.67837457  0.15193647  0.09138440     0.02300
C2151       C  0.67394181  0.13080888  0.10958863    -0.18200
C2152       C  0.65262196  0.12509147  0.12839817     0.02300
C2153       C  0.63378171  0.13947561  0.12845832     0.02300
C2154       C  0.63720168  0.15982135  0.10996407    -0.18200
H2155       H  0.62282446  0.17102501  0.11034366     0.04300
H2156       H  0.68733810  0.11857906  0.10920603     0.04300
C2157       C  0.51172493  0.31530297  0.40120785     0.02300
C2158       C  0.98130166  0.29777533  0.39797025     0.02300
C2159       C  0.96777250  0.30213195  0.37697928    -0.18200
C2160       C  0.98319489  0.32437718  0.35994844     0.02300
C2161       C  0.51353019  0.34275613  0.36394197     0.02300
C2162       C  0.52744045  0.33729266  0.38413976    -0.18200
H2163       H  0.55077212  0.35077698  0.38695360     0.04300
H2164       H  0.94434740  0.28886826  0.37449743     0.04300
C2165       C  0.99099734  0.32490443  0.08689392     0.02300
C2166       C  0.52222008  0.33684224  0.08617178     0.02300
C2167       C  0.53837416  0.35725211  0.10421248    -0.18200
C2168       C  0.52436919  0.36498290  0.12396531     0.02300
C2169       C  0.99290471  0.35309949  0.12480962     0.02300
C2170       C  0.97690228  0.33293080  0.10640544    -0.18200
H2171       H  0.95297823  0.32237101  0.10776894     0.04300
H2172       H  0.56232800  0.36691344  0.10305045     0.04300
C2173       C  0.54206573  0.41430052  0.32835853    -0.09100
C2174       C  0.56506425  0.41237201  0.31411921     0.07100
C2175       C  0.57252139  0.38875973  0.31788548    -0.02900
C2176       C  0.55598894  0.36683587  0.33466115    -0.07300
C2177       C  0.53161073  0.36767886  0.34762974     0.06200
C2178       C  0.52564506  0.39245541  0.34523933    -0.02300
Br2179     Br  0.99678134  0.39853172  0.36562882    -0.02000
H2180       H  0.53671967  0.43282115  0.32616346     0.10100
H2181       H  0.56152796  0.34845482  0.33697662     0.08100
Br2182     Br  0.60488236  0.38539841  0.30047454    -0.02500
C2183       C  0.53935791  0.41032936  0.14994643    -0.09100
C2184       C  0.54320510  0.38505701  0.14345919     0.07100
C2185       C  0.56337562  0.37816713  0.15698112    -0.02900
C2186       C  0.57839550  0.39592490  0.17688370    -0.07300
C2187       C  0.57331658  0.42023997  0.18397804     0.06200
C2188       C  0.55358919  0.42740571  0.17036561    -0.02300
Br2189     Br  0.04370110  0.45906619  0.18005666    -0.02000
H2190       H  0.02405954  0.41596603  0.13981722     0.10100
H2191       H  0.59355529  0.39035722  0.18727655     0.08100
Br2192     Br  0.56987162  0.34373301  0.15056821    -0.02500
C2193       C  0.65211485  0.08801187  0.31832874    -0.09100
C2194       C  0.62561392  0.06250275  0.31672928     0.07100
C2195       C  0.60288851  0.05796106  0.33432272    -0.02900
C2196       C  0.60769086  0.07762698  0.35393470    -0.07300
C2197       C  0.63356003  0.10358451  0.35507077     0.06200
C2198       C  0.65586342  0.10890301  0.33692158    -0.02300
Br2199     Br  0.69102520  0.14483689  0.33610351    -0.02000
H2200       H  0.66959629  0.09198846  0.30469993     0.10100
H2201       H  0.59075521  0.07292660  0.36802683     0.08100
Br2202     Br  0.56404886  0.02676336  0.33136902    -0.02500
C2203       C  0.62544274  0.05535274  0.16504902    -0.09100
C2204       C  0.64180727  0.06459844  0.18689924     0.07100
C2205       C  0.66443948  0.09340508  0.18796265    -0.02900
C2206       C  0.66734050  0.11315140  0.16904974    -0.07300
C2207       C  0.65016901  0.10378975  0.14776028     0.06200
C2208       C  0.63110414  0.07407985  0.14502975    -0.02300
Br2209     Br  0.61542843  0.05744164  0.11355230    -0.02000
H2210       H  0.60886619  0.03306203  0.16312617     0.10100
H2211       H  0.68363891  0.13562232  0.17058034     0.08100
Br2212     Br  0.69347824  0.10609892  0.21345803    -0.02500
C2213       C  0.93997439  0.33317426  0.34806979    -0.09100
C2214       C  0.96571675  0.33015101  0.34060821     0.07100
C2215       C  0.97406298  0.33341806  0.31539790    -0.02900
C2216       C  0.95994854  0.34452393  0.29928797    -0.07300
C2217       C  0.93548373  0.34961056  0.30726354     0.06200
C2218       C  0.92427671  0.34171899  0.33149431    -0.02300
Br2219     Br  0.88798737  0.34255952  0.34325302    -0.02000
H2220       H  0.93236051  0.32960441  0.36714075     0.10100
H2221       H  0.96833207  0.34939228  0.28049969     0.08100
Br2222     Br  0.00228141  0.32060304  0.30142177    -0.02500
C2223       C  0.98355756  0.35889183  0.16993080    -0.09100
C2224       C  0.97589224  0.35969306  0.14521207     0.07100
C2225       C  0.95192461  0.36677547  0.14043044    -0.02900
C2226       C  0.93550434  0.37112718  0.15998672    -0.07300
C2227       C  0.94452585  0.37229831  0.18444242     0.06200
C2228       C  0.96967421  0.36735118  0.18917113    -0.02300
Br2229     Br  0.98816392  0.37527013  0.22080157    -0.02000
H2230       H  0.50143985  0.35312548  0.17432602     0.10100
H2231       H  0.91649460  0.37532064  0.15595680     0.08100
Br2232     Br  0.94202924  0.37409080  0.10802117    -0.02500
C2233       C  0.84836530  0.43805329  0.33278767    -0.09100
C2234       C  0.87753866  0.45139608  0.32395279     0.07100
C2235       C  0.89743209  0.47789474  0.33483350    -0.02900
C2236       C  0.88735521  0.49112474  0.35352260    -0.07300
C2237       C  0.85724191  0.47948608  0.36010467     0.06200
C2238       C  0.83774089  0.45232435  0.34988675    -0.02300
Br2239     Br  0.79569431  0.43519721  0.35591058    -0.02000
H2240       H  0.83312621  0.41748831  0.32475226     0.10100
H2241       H  0.90249981  0.51177337  0.36147042     0.08100
Br2242     Br  0.93760163  0.49845934  0.32336729    -0.02500
C2243       C  0.84658128  0.48573919  0.17675855    -0.09100
C2244       C  0.84274681  0.47152670  0.15370723     0.07100
C2245       C  0.84609062  0.44500390  0.15204569    -0.02900
C2246       C  0.85380268  0.43414347  0.17288253    -0.07300
C2247       C  0.86173123  0.45063120  0.19486415     0.06200
C2248       C  0.85838732  0.47695446  0.19641668    -0.02300
Br2249     Br  0.87513094  0.50491361  0.22211080    -0.02000
H2250       H  0.84332670  0.00557028  0.17881444     0.10100
H2251       H  0.85634752  0.41387626  0.17118782     0.08100
Br2252     Br  0.84543319  0.42452393  0.12162661    -0.02500
C2253       C  0.86490901  0.02841813  0.32602569    -0.09100
C2254       C  0.86529401  0.04243256  0.34880170     0.07100
C2255       C  0.88356428  0.07305527  0.35025616    -0.02900
C2256       C  0.90066301  0.08780612  0.32968302    -0.07300
C2257       C  0.90489305  0.07228869  0.30932093     0.06200
C2258       C  0.88643580  0.04203382  0.30777459    -0.02300
Br2259     Br  0.89180388  0.01714018  0.28299853    -0.02000
H2260       H  0.84968381  0.50581674  0.32314315     0.10100
H2261       H  0.91262894  0.11137192  0.33053607     0.08100
Br2262     Br  0.89025428  0.09612064  0.38012406    -0.02500
C2263       C  0.92180418  0.04891893  0.16840764    -0.09100
C2264       C  0.91752600  0.07216001  0.17984774     0.07100
C2265       C  0.89507327  0.07932937  0.17113927    -0.02900
C2266       C  0.87523461  0.06120090  0.15353668    -0.07300
C2267       C  0.87831528  0.03667898  0.14336150     0.06200
C2268       C  0.90307392  0.03187031  0.14980682    -0.02300
Br2269     Br  0.91288083  0.00313515  0.13313541    -0.02000
H2270       H  0.93988223  0.04399260  0.17402989     0.10100
H2271       H  0.85712451  0.06608592  0.14795292     0.08100
Br2272     Br  0.89144653  0.11410673  0.18204777    -0.02500
C2273       C  0.54975844  0.10758702  0.33582461    -0.09100
C2274       C  0.55821289  0.12495250  0.31450183     0.07100
C2275       C  0.58639693  0.14897140  0.31391940    -0.02900
C2276       C  0.60582878  0.15389574  0.33360136    -0.07300
C2277       C  0.59699371  0.13663805  0.35486993     0.06200
C2278       C  0.56804462  0.11439449  0.35636885    -0.02300
Br2279     Br  0.55165848  0.09403658  0.38653697    -0.02000
H2280       H  0.52813007  0.08939507  0.33697210     0.10100
H2281       H  0.62775647  0.17163956  0.33253060     0.08100
Br2282     Br  0.59887494  0.17692910  0.28768282    -0.02500
C2283       C  0.56082662  0.10629073  0.16404622    -0.09100
C2284       C  0.56718215  0.12374144  0.18562560     0.07100
C2285       C  0.59575469  0.14685490  0.18788674    -0.02900
C2286       C  0.61738024  0.15103231  0.16948614    -0.07300
C2287       C  0.61062467  0.13383680  0.14789956     0.06200
C2288       C  0.58172711  0.11212498  0.14485098    -0.02300
Br2289     Br  0.56887115  0.09195300  0.11399698    -0.02000
H2290       H  0.53896382  0.08884805  0.16160748     0.10100
H2291       H  0.63931049  0.16847544  0.17160865     0.08100
Br2292     Br  0.60591846  0.17502851  0.21441065    -0.02500
C2293       C  0.68741677  0.24049110  0.05982314    -0.09100
C2294       C  0.66330644  0.23743819  0.04513335     0.07100
C2295       C  0.63854611  0.21007106  0.04467985    -0.02900
C2296       C  0.63830290  0.18681055  0.05885226    -0.07300
C2297       C  0.66235540  0.19016878  0.07376597     0.06200
C2298       C  0.68692873  0.21753715  0.07426013    -0.02300
Br2299     Br  0.71907413  0.22592635  0.09632442    -0.02000
H2300       H  0.70655172  0.26136239  0.06081966     0.10100
H2301       H  0.61895317  0.16607111  0.05861078     0.08100
Br2302     Br  0.60496392  0.20293731  0.02461241    -0.02500
C2303       C  0.55183868  0.30989235  0.07244323    -0.09100
C2304       C  0.53926794  0.32922296  0.06689270     0.07100
C2305       C  0.54724190  0.34480201  0.04477485    -0.02900
C2306       C  0.56737426  0.34089292  0.02851225    -0.07300
C2307       C  0.58047166  0.32171950  0.03382954     0.06200
C2308       C  0.57215368  0.30585018  0.05616419    -0.02300
Br2309     Br  0.58729381  0.27845638  0.06590089    -0.02000
H2310       H  0.54632375  0.29841330  0.08986172     0.10100
H2311       H  0.57331587  0.35372155  0.01180110     0.08100
Br2312     Br  0.53297071  0.37343985  0.03690210    -0.02500
C2313       C  0.76299461  0.45509710  0.07273970    -0.09100
C2314       C  0.79280502  0.46013524  0.07389814     0.07100
C2315       C  0.80295168  0.44226397  0.05986382    -0.02900
C2316       C  0.78309698  0.41881221  0.04608504    -0.07300
C2317       C  0.75309746  0.41300579  0.04567813     0.06200
C2318       C  0.74312667  0.43173761  0.05862903    -0.02300
Br2319     Br  0.70215171  0.42436950  0.05964209    -0.02000
H2320       H  0.75491126  0.46843400  0.08375680     0.10100
H2321       H  0.79098216  0.40460792  0.03607537     0.08100
Br2322     Br  0.84349838  0.44812585  0.05974924    -0.02500
C2323       C  0.64305431  0.20899077  0.47110737    -0.09100
C2324       C  0.65569731  0.23814439  0.46311806     0.07100
C2325       C  0.66484485  0.24406512  0.43823271    -0.02900
C2326       C  0.66111317  0.22095855  0.42184093    -0.07300
C2327       C  0.64831041  0.19181872  0.42984309     0.06200
C2328       C  0.63896692  0.18590548  0.45466242    -0.02300
Br2329     Br  0.61860300  0.14671976  0.46655289    -0.02000
H2330       H  0.63547767  0.20409041  0.49010975     0.10100
H2331       H  0.66836261  0.22572241  0.40276139     0.08100
Br2332     Br  0.68386754  0.28325845  0.42608086    -0.02500
C2333       C  0.56576190  0.29495996  0.43400094    -0.09100
C2334       C  0.57230242  0.31390810  0.45452314     0.07100
C2335       C  0.55497055  0.32944263  0.45958483    -0.02900
C2336       C  0.53384296  0.32836978  0.44267298    -0.07300
C2337       C  0.52863893  0.31083770  0.42134372     0.06200
C2338       C  0.54420748  0.29346869  0.41736832    -0.02300
Br2339     Br  0.53936319  0.27024940  0.38792049    -0.02000
H2340       H  0.57896527  0.28298485  0.42982888     0.10100
H2341       H  0.52249216  0.34234750  0.44561449     0.08100
Br2342     Br  0.55923035  0.35243692  0.48917044    -0.02500
C2343       C  0.80003590  0.45596864  0.44619152    -0.09100
C2344       C  0.79238444  0.47347925  0.43036218     0.08300
C2345       C  0.76222458  0.46629983  0.42708579    -0.02900
C2346       C  0.74072877  0.44230980  0.43921952    -0.07300
C2347       C  0.74801220  0.42363080  0.45409463     0.06200
C2348       C  0.77836181  0.43111267  0.45774093    -0.02300
Br2349     Br  0.79213747  0.40738313  0.47623456    -0.02000
H2350       H  0.82312104  0.46060800  0.44832480     0.10100
H2351       H  0.71786242  0.43764086  0.43588840     0.08100
Br2352     Br  0.74846175  0.48528524  0.40326909    -0.02500
C2353       C  0.52900480  0.22532853  0.93215469    -0.09100
C2354       C  0.53173178  0.19902512  0.92855473     0.07100
C2355       C  0.55549602  0.19573318  0.93987352    -0.02900
C2356       C  0.57688976  0.21922314  0.95282930    -0.07300
C2357       C  0.57514959  0.24620025  0.95488263     0.06200
C2358       C  0.54996395  0.24853175  0.94542020    -0.02300
Br2359     Br  0.54216374  0.28255604  0.95002050    -0.02000
H2360       H  0.51109913  0.22842151  0.92369700     0.10100
H2361       H  0.59555814  0.21672124  0.96044182     0.08100
Br2362     Br  0.56041200  0.15995943  0.93793804    -0.02500
C2363       C  0.70093515  0.46329283  0.92729818    -0.09100
C2364       C  0.67662960  0.47046017  0.92758690     0.07100
C2365       C  0.65254033  0.45523309  0.94351932    -0.02900
C2366       C  0.65229391  0.43217823  0.95760699    -0.07300
C2367       C  0.67554827  0.42326668  0.95593473     0.06200
C2368       C  0.70059819  0.43988468  0.94111516    -0.02300
Br2369     Br  0.73371561  0.43025188  0.93657420    -0.02000
H2370       H  0.71942899  0.47460292  0.91482946     0.10100
H2371       H  0.63303750  0.42033247  0.96916620     0.08100
Br2372     Br  0.61878048  0.46414681  0.94582844    -0.02500
C2373       C  0.78668312  0.35886074  0.54206728    -0.09100
C2374       C  0.75983451  0.33382317  0.54379785     0.07100
C2375       C  0.75775743  0.31122683  0.55993843    -0.02900
C2376       C  0.78237675  0.31352607  0.57313948    -0.07300
C2377       C  0.80912893  0.33853548  0.57155084     0.06200
C2378       C  0.81111051  0.36149076  0.55594134    -0.02300
Br2379     Br  0.84648945  0.39701990  0.55310503    -0.02000
H2380       H  0.78867010  0.37646612  0.52995340     0.10100
H2381       H  0.78008791  0.29639897  0.58593677     0.08100
Br2382     Br  0.72108586  0.27827474  0.56737036    -0.02500
C2383       C  0.77043225  0.32974870  0.92213950    -0.09100
C2384       C  0.80019148  0.34024982  0.92893532     0.07100
C2385       C  0.80797141  0.34989963  0.95338954    -0.02900
C2386       C  0.78616189  0.34929260  0.97043462    -0.07300
C2387       C  0.75653515  0.33962933  0.96342126     0.06200
C2388       C  0.74865761  0.32922999  0.93914674    -0.02300
Br2389     Br  0.70836892  0.31261223  0.92873302    -0.02000
H2390       H  0.76419990  0.32225003  0.90335545     0.10100
H2391       H  0.79249304  0.35711722  0.98913210     0.08100
Br2392     Br  0.84819171  0.36595636  0.96393020    -0.02500
C2393       C  0.69445520  0.45021592  0.56572239    -0.09100
C2394       C  0.66884161  0.45530257  0.56636381     0.07100
C2395       C  0.64471749  0.43751596  0.55179907    -0.02900
C2396       C  0.64694472  0.41603084  0.53633040    -0.07300
C2397       C  0.67286169  0.41142881  0.53506428     0.06200
C2398       C  0.69676269  0.42867865  0.55018443    -0.02300
Br2399     Br  0.73360101  0.42515182  0.54956607    -0.02000
H2400       H  0.71263211  0.46274491  0.57769303     0.10100
H2401       H  0.62824429  0.40294106  0.52499154     0.08100
Br2402     Br  0.60830754  0.94179579  0.55196892    -0.02500
C2403       C  0.58196879  0.21184785  0.54744144    -0.09100
C2404       C  0.58478704  0.24048026  0.54476726     0.07100
C2405       C  0.56249132  0.24800146  0.55470150    -0.02900
C2406       C  0.53932786  0.22765780  0.56896792    -0.07300
C2407       C  0.53757631  0.19951176  0.57293007     0.06200
C2408       C  0.55842454  0.19129799  0.56094037    -0.02300
Br2409     Br  0.55616305  0.15236094  0.56271499    -0.02000
H2410       H  0.59846044  0.20553729  0.53923979     0.10100
H2411       H  0.52361890  0.23438689  0.57806308     0.08100
Br2412     Br  0.56405831  0.28641939  0.55123968    -0.02500
C2413       C  0.90285614  0.36619972  0.80641339    -0.09100
C2414       C  0.93121841  0.36999480  0.81356300     0.07100
C2415       C  0.93531843  0.36485347  0.83845028    -0.02900
C2416       C  0.91285141  0.36033978  0.85591209    -0.07300
C2417       C  0.88474456  0.35716604  0.84882625     0.06200
C2418       C  0.87932202  0.35770268  0.82344890    -0.02300
Br2419     Br  0.84019113  0.34294375  0.81055247    -0.02000
H2420       H  0.89863589  0.36878827  0.78728112     0.10100
H2421       H  0.91720714  0.35852280  0.87516198     0.08100
Br2422     Br  0.96998305  0.36146155  0.84961485    -0.02500
C2423       C  0.59744558  0.43777586  0.82326964    -0.09100
C2424       C  0.58346213  0.45431927  0.81394264     0.07100
C2425       C  0.59145929  0.48291473  0.82308031    -0.02900
C2426       C  0.61249019  0.49416331  0.84175888    -0.07300
C2427       C  0.62780470  0.47826883  0.85034270     0.06200
C2428       C  0.61966601  0.44947572  0.84091142    -0.02300
Br2429     Br  0.63963426  0.42565522  0.84927926    -0.02000
H2430       H  0.59170940  0.41587494  0.81609298     0.10100
H2431       H  0.61767723  0.51594183  0.84891730     0.08100
Br2432     Br  0.57546836  0.50786720  0.80943417    -0.02500
C2433       C  0.60144366  0.43518236  0.67695011    -0.09100
C2434       C  0.58376701  0.44928900  0.68474983     0.07100
C2435       C  0.58692918  0.47509235  0.67287669    -0.02900
C2436       C  0.60577143  0.48498147  0.65227080    -0.07300
C2437       C  0.62395653  0.47122651  0.64468995     0.06200
C2438       C  0.62211882  0.44645832  0.65767942    -0.02300
Br2439     Br  0.64904244  0.42877243  0.65154012    -0.02000
H2440       H  0.59968227  0.41574179  0.68638365     0.10100
H2441       H  0.60730160  0.00433666  0.64285184     0.08100
Br2442     Br  0.56681361  0.99807697  0.68475454    -0.02500
C2443       C  0.90419482  0.35794274  0.69402978    -0.09100
C2444       C  0.93234791  0.35948311  0.68790479     0.07100
C2445       C  0.93709383  0.35094885  0.66378035    -0.02900
C2446       C  0.91615556  0.34647256  0.64550781    -0.07300
C2447       C  0.88878290  0.34716066  0.65124848     0.06200
C2448       C  0.88196683  0.34978535  0.67641778    -0.02300
Br2449     Br  0.84235349  0.33857825  0.68860688    -0.02000
H2450       H  0.89921336  0.36272527  0.71271569     0.10100
H2451       H  0.92153353  0.34273476  0.62664893     0.08100
Br2452     Br  0.97133378  0.34439316  0.65489639    -0.02500
C2453       C  0.56429048  0.15471964  0.81947777    -0.09100
C2454       C  0.55670267  0.12496977  0.81469515     0.07100
C2455       C  0.53373918  0.10372156  0.82855575    -0.02900
C2456       C  0.52046041  0.11253145  0.84796684    -0.07300
C2457       C  0.52668744  0.14212441  0.85193589     0.06200
C2458       C  0.54882785  0.16338503  0.83730018    -0.02300
Br2459     Br  0.55785456  0.20429460  0.83986855    -0.02000
H2460       H  0.58155066  0.17122072  0.80854537     0.10100
H2461       H  0.00496574  0.09600894  0.85977500     0.08100
Br2462     Br  0.51854122  0.06257974  0.82111221    -0.02500
C2463       C  0.66857100  0.04777943  0.80144013    -0.09100
C2464       C  0.66761678  0.07452595  0.80793173     0.07100
C2465       C  0.67609322  0.08615516  0.83177691    -0.02900
C2466       C  0.67916760  0.06847469  0.84991533    -0.07300
C2467       C  0.67698173  0.04029831  0.84407009     0.06200
C2468       C  0.67482804  0.03144038  0.81908623    -0.02300
Br2469     Br  0.68073786  0.99787105  0.80813315    -0.02000
H2470       H  0.66358088  0.03913392  0.78280110     0.10100
H2471       H  0.68230929  0.07649097  0.86881892     0.08100
Br2472     Br  0.68152558  0.12513063  0.84078142    -0.02500
C2473       C  0.66931815  0.08016871  0.66096374    -0.09100
C2474       C  0.66179954  0.06846079  0.68470176     0.07100
C2475       C  0.66179990  0.04100225  0.68937075    -0.02900
C2476       C  0.66763583  0.02538585  0.67004790    -0.07300
C2477       C  0.66928653  0.03455719  0.64548989     0.06200
C2478       C  0.67092875  0.06284427  0.64112463    -0.02300
Br2479     Br  0.67035984  0.07785280  0.60884173    -0.02000
H2480       H  0.66991265  0.10147214  0.65732117     0.10100
H2481       H  0.66786448  0.00451486  0.67397587     0.08100
Br2482     Br  0.64990462  0.02159810  0.72058852    -0.02500
C2483       C  0.52146350  0.11467299  0.65271063    -0.09100
C2484       C  0.52795610  0.14437037  0.64969746     0.07100
C2485       C  0.54903262  0.16532162  0.66509496    -0.02900
C2486       C  0.56387307  0.15639520  0.68232917    -0.07300
C2487       C  0.55636106  0.12656527  0.68592266     0.06200
C2488       C  0.53368254  0.10557409  0.67186053    -0.02300
Br2489     Br  0.51773184  0.06443438  0.67875497    -0.02000
H2490       H  0.50667201  0.09834418  0.64031871     0.10100
H2491       H  0.58067330  0.17271350  0.69359429     0.08100
Br2492     Br  0.55734705  0.20611325  0.66410951    -0.02500
C2493       C  0.93794238  0.07015563  0.83561064    -0.09100
C2494       C  0.93200286  0.08067618  0.81343321     0.07100
C2495       C  0.93894067  0.11088081  0.81185814    -0.02900
C2496       C  0.95458759  0.13002075  0.83091724    -0.07300
C2497       C  0.96096214  0.11919846  0.85260160     0.06200
C2498       C  0.95031311  0.08885206  0.85560245    -0.02300
Br2499     Br  0.45248822  0.07205306  0.88665084    -0.02000
H2500       H  0.93245172  0.04710883  0.83764965     0.10100
H2501       H  0.96122503  0.15331441  0.82908198     0.08100
Br2502     Br  0.92556115  0.12684484  0.78538510    -0.02500
C2503       C  0.83120825  0.41355312  0.82056239    -0.09100
C2504       C  0.85973341  0.43509677  0.81584783     0.07100
C2505       C  0.88305087  0.43719299  0.83111756    -0.02900
C2506       C  0.87798918  0.41651109  0.84958677    -0.07300
C2507       C  0.84977736  0.39376600  0.85339525     0.06200
C2508       C  0.82593517  0.39328897  0.83945969    -0.02300
Br2509     Br  0.78626213  0.36376051  0.84360813    -0.02000
H2510       H  0.81310197  0.41216732  0.80916724     0.10100
H2511       H  0.89630452  0.41773192  0.86062805     0.08100
Br2512     Br  0.92240711  0.46726010  0.82682988    -0.02500
C2513       C  0.94033270  0.10738376  0.68855876    -0.09100
C2514       C  0.93396328  0.07775307  0.68367619     0.07100
C2515       C  0.94120774  0.07012806  0.65986825    -0.02900
C2516       C  0.95319974  0.09156308  0.64179113    -0.07300
C2517       C  0.96242225  0.12118294  0.64778599     0.06200
C2518       C  0.95582842  0.12911673  0.67135783    -0.02300
Br2519     Br  0.96910735  0.16928211  0.68131547    -0.02000
H2520       H  0.93465035  0.11392894  0.70636641     0.10100
H2521       H  0.95857232  0.08545870  0.62366492     0.08100
Br2522     Br  0.94022166  0.03248794  0.65139123    -0.02500
C2523       C  0.83413789  0.38916007  0.65912811    -0.09100
C2524       C  0.85947741  0.38936030  0.64697939     0.07100
C2525       C  0.88728965  0.41194443  0.65255854    -0.02900
C2526       C  0.88962156  0.43192683  0.67165068    -0.07300
C2527       C  0.86446512  0.43027529  0.68495680     0.06200
C2528       C  0.83648410  0.40919813  0.67811565    -0.02300
Br2529     Br  0.80099545  0.40725140  0.69399496    -0.02000
H2530       H  0.81247193  0.37258051  0.65443884     0.10100
H2531       H  0.91115064  0.44892156  0.67611421     0.08100
Br2532     Br  0.92220503  0.41768143  0.63355799    -0.02500
C2533       C  0.94176072  0.16675734  0.53657368    -0.09100
C2534       C  0.92568991  0.18252863  0.54466191     0.07100
C2535       C  0.93386982  0.19906772  0.56673432    -0.02900
C2536       C  0.95633578  0.19781848  0.58104810    -0.07300
C2537       C  0.97051541  0.17994199  0.57392271     0.06200
C2538       C  0.96363358  0.16496434  0.55113216    -0.02300
Br2539     Br  0.47977830  0.13802276  0.54090339    -0.02000
H2540       H  0.93551400  0.15367605  0.51978455     0.10100
H2541       H  0.96102004  0.20885164  0.59886344     0.08100
Br2542     Br  0.91209010  0.21964884  0.58027425    -0.02500
C2543       C  0.83436147  0.07145607  0.46444494    -0.09100
C2544       C  0.81793326  0.08760348  0.45997835     0.07100
C2545       C  0.79878985  0.07964133  0.43958165    -0.02900
C2546       C  0.79752346  0.05675769  0.42380612    -0.07300
C2547       C  0.81463680  0.04125567  0.42814942     0.06200
C2548       C  0.83309712  0.04882333  0.44879922    -0.02300
Br2549     Br  0.86016087  0.53179160  0.45511033    -0.02000
H2550       H  0.84891277  0.07672331  0.48009902     0.10100
H2551       H  0.78413980  0.05190323  0.40743513     0.08100
Br2552     Br  0.77550511  0.10012230  0.43101711    -0.02500
C2553       C  0.73506427  0.02655911  0.56450917    -0.09100
C2554       C  0.70560774  0.02195831  0.56354384     0.07100
C2555       C  0.69794952  0.04034390  0.54876394    -0.02900
C2556       C  0.72008573  0.06469259  0.53712203    -0.07300
C2557       C  0.75009391  0.07074862  0.53962425     0.06200
C2558       C  0.75721891  0.05024747  0.55270532    -0.02300
Br2559     Br  0.79655593  0.05348122  0.55819607    -0.02000
H2560       H  0.74127829  0.01323966  0.57652097     0.10100
H2561       H  0.71384117  0.07927557  0.52672172     0.08100
Br2562     Br  0.65747055  0.03408969  0.54602137    -0.02500
C2563       C  0.91777056  0.23284465  0.42612986    -0.09100
C2564       C  0.91368980  0.24477177  0.44878994     0.07100
C2565       C  0.93558524  0.27185652  0.45667427    -0.02900
C2566       C  0.95871802  0.28835838  0.44046441    -0.07300
C2567       C  0.96185119  0.27730255  0.41706540     0.06200
C2568       C  0.94215441  0.24844933  0.41071594    -0.02300
Br2569     Br  0.94779998  0.22965648  0.38115067    -0.02000
H2570       H  0.90185831  0.21135747  0.42036374     0.10100
H2571       H  0.97318219  0.31049969  0.44570830     0.08100
Br2572     Br  0.93408657  0.28787984  0.48880016    -0.02500
C2573       C  0.71007380  0.13941572  0.45965607    -0.09100
C2574       C  0.73490144  0.16663588  0.45959397     0.07100
C2575       C  0.73366261  0.18949225  0.44536572    -0.02900
C2576       C  0.70895616  0.18427414  0.43091925    -0.07300
C2577       C  0.68471809  0.15687317  0.43043814     0.06200
C2578       C  0.68515726  0.13451176  0.44550152    -0.02300
Br2579     Br  0.65204233  0.09697354  0.44774551    -0.02000
H2580       H  0.71004459  0.12168799  0.47065822     0.10100
H2581       H  0.70915973  0.20155315  0.41923059     0.08100
Br2582     Br  0.76522256  0.22810097  0.44311710    -0.02500
C2583       C  0.83352877  0.25005255  0.55903217    -0.09100
C2584       C  0.84196868  0.25889495  0.53453329     0.07100
C2585       C  0.85030477  0.28861746  0.52866875    -0.02900
C2586       C  0.85035739  0.30858896  0.54717776    -0.07300
C2587       C  0.84216349  0.29970833  0.57172815     0.06200
C2588       C  0.83327162  0.26991103  0.57740938    -0.02300
Br2589     Br  0.81920985  0.25462173  0.60971902    -0.02000
H2590       H  0.82660275  0.22733600  0.56390041     0.10100
H2591       H  0.85773110  0.33142094  0.54251161     0.08100
Br2592     Br  0.86410981  0.30392935  0.49630060    -0.02500
C2593       C  0.72159542  0.07817186  0.95301431    -0.09100
C2594       C  0.75197195  0.08566143  0.95325323     0.07100
C2595       C  0.76310620  0.06762671  0.94062324    -0.02900
C2596       C  0.74407736  0.04361324  0.92660315    -0.07300
C2597       C  0.71382679  0.03688889  0.92547702     0.06200
C2598       C  0.70254370  0.05394994  0.93941939    -0.02300
Br2599     Br  0.66172227  0.04702567  0.93815872    -0.02000
H2600       H  0.71280221  0.09179712  0.96278465     0.10100
H2601       H  0.75318870  0.03130537  0.91536449     0.08100
Br2602     Br  0.80452547  0.07677894  0.93993890    -0.02500
C2603       C  0.69500975  0.15303935  0.04723093    -0.09100
C2604       C  0.70211495  0.15658746  0.07234837     0.07100
C2605       C  0.73102225  0.16112331  0.07906731    -0.02900
C2606       C  0.75157632  0.16111850  0.06098460    -0.07300
C2607       C  0.74443257  0.15730564  0.03586172     0.06200
C2608       C  0.71573673  0.15351529  0.02906409    -0.02300
Br2609     Br  0.70238812  0.14678947  0.99555012    -0.02000
H2610       H  0.67284050  0.14884503  0.04173322     0.10100
H2611       H  0.77351260  0.16460635  0.06661471     0.08100
Br2612     Br  0.74431501  0.16853404  0.11261741    -0.02500
C2613       C  0.92312282  0.18785847  0.94141489    -0.09100
C2614       C  0.92403252  0.17956937  0.96590795     0.07100
C2615       C  0.94685974  0.17111234  0.97220177    -0.02900
C2616       C  0.96586378  0.16848517  0.95387778    -0.07300
C2617       C  0.96368758  0.17508896  0.92925941     0.06200
C2618       C  0.94283728  0.18601826  0.92328792    -0.02300
Br2619     Br  0.94082568  0.19938430  0.89070240    -0.02000
H2620       H  0.90671924  0.19538464  0.93616687     0.10100
H2621       H  0.98207815  0.16056382  0.95883101     0.08100
Br2622     Br  0.95471419  0.16356211  0.00534336    -0.02500
C2623       C  0.84087384  0.05990208  0.03466033    -0.09100
C2624       C  0.82245332  0.07356802  0.04170028     0.07100
C2625       C  0.80097238  0.06109713  0.06056751    -0.02900
C2626       C  0.80016299  0.03698486  0.07337250    -0.07300
C2627       C  0.82105675  0.02577659  0.06823681     0.06200
C2628       C  0.84063767  0.03646550  0.04802701    -0.02300
Br2629     Br  0.87018573  0.52263307  0.04020662    -0.02000
H2630       H  0.85720975  0.06897938  0.01997718     0.10100
H2631       H  0.78548791  0.02919019  0.08930393     0.08100
Br2632     Br  0.77609896  0.07897645  0.07298353    -0.02500
C2633       C  0.92872857  0.28002871  0.04358695    -0.09100
C2634       C  0.92831203  0.25210942  0.04572956     0.07100
C2635       C  0.95175485  0.24977226  0.05863995    -0.02900
C2636       C  0.97277883  0.27415372  0.07072542    -0.07300
C2637       C  0.97209584  0.30149366  0.06968515     0.06200
C2638       C  0.95045244  0.30455809  0.05518558    -0.02300
Br2639     Br  0.94994388  0.34183151  0.05017991    -0.02000
H2640       H  0.91183553  0.28281810  0.03319426     0.10100
H2641       H  0.98930701  0.27149188  0.08172697     0.08100
Br2642     Br  0.95782412  0.21465912  0.06050563    -0.02500
C2643       C  0.81185021  0.28228712  0.93123633    -0.09100
C2644       C  0.83869513  0.30603503  0.92602472     0.07100
C2645       C  0.86473668  0.30695710  0.93663781    -0.02900
C2646       C  0.86363975  0.28376006  0.95122956    -0.07300
C2647       C  0.83675250  0.25950098  0.95604949     0.06200
C2648       C  0.81048026  0.25937744  0.94613794    -0.02300
Br2649     Br  0.77154197  0.22835519  0.95064875    -0.02000
H2650       H  0.79179849  0.28102721  0.92295100     0.10100
H2651       H  0.88390499  0.28481860  0.95892622     0.08100
Br2652     Br  0.90230203  0.33993262  0.93237869    -0.02500
O2653       O  0.85627236  0.61944354  0.02680340    -0.80800
O2654       O  0.85929598  0.73074059  0.97550640    -0.65500
O2655       O  0.84646592  0.67005828  0.02254163    -1.12100
C2656       C  0.77166551  0.61311087  0.96560957     1.06000
O2657       O  0.81165047  0.71686145  0.98002580    -0.78700
O2658       O  0.76724289  0.66851611  0.99627314    -0.66300
Ni2659     Ni  0.87690491  0.66070672  0.03403594     1.34900
C2660       C  0.76729790  0.65805296  0.01728406     0.84800
O2661       O  0.88685232  0.72949028  0.01864393    -0.79300
O2662       O  0.90025980  0.70098288  0.04220699    -0.89600
C2663       C  0.83616076  0.73468919  0.97112216     0.84400
O2664       O  0.89816267  0.66497366  0.00383335    -0.67800
O2665       O  0.77364235  0.63729266  0.95683347    -0.87000
C2666       C  0.90118591  0.67947445  0.98435198     0.85200
C2667       C  0.90359591  0.72603525  0.03475253     1.06800
H2668       H  0.83381181  0.66504643  0.96679744     0.38600
O2669       O  0.82482973  0.67026587  0.98083388    -1.09700
O2670       O  0.78631165  0.64862601  0.02302974    -0.66400
Ni2671     Ni  0.81561866  0.64033315  0.00430673     1.26300
O2672       O  0.88554772  0.69347859  0.98017091    -0.66600
O2673       O  0.78560853  0.61132113  0.98451085    -0.78900
C2674       C  0.82944096  0.60280474  0.03181554     0.84600
O2675       O  0.80919824  0.61092513  0.02798297    -0.66100
Ni2676     Ni  0.79333272  0.67727309  0.96836523     1.27400
Ni2677     Ni  0.85551740  0.70074938  0.99915089     1.26100
H2678       H  0.83779458  0.67525667  0.03714722     0.39100
O2679       O  0.78136449  0.69553660  0.47857607    -0.80800
O2680       O  0.88875955  0.69540599  0.52781837    -0.65500
O2681       O  0.82751102  0.67926294  0.48133885    -1.12100
C2682       C  0.77380378  0.59788456  0.52901085     1.06000
O2683       O  0.88157815  0.64894801  0.52748845    -0.78700
O2684       O  0.84291893  0.62055124  0.49193053    -0.66300
Ni2685     Ni  0.82179439  0.71033824  0.46687712     1.34900
C2686       C  0.82076842  0.61114120  0.47795479     0.84800
O2687       O  0.88775920  0.71885468  0.48425432    -0.79300
O2688       O  0.86170070  0.72578608  0.45370396    -0.89600
C2689       C  0.89714004  0.67565307  0.53278161     0.84400
O2690       O  0.83348640  0.73794854  0.49399901    -0.67800
O2691       O  0.79911847  0.59780215  0.52703705    -0.87000
C2692       C  0.84159100  0.73659670  0.51585428     0.85200
C2693       C  0.88609291  0.72901121  0.46323365     1.06800
H2694       H  0.82592042  0.66408961  0.53866307     0.38600
O2695       O  0.82953196  0.65733386  0.52270707    -1.09700
O2696       O  0.80018278  0.61953323  0.48080613    -0.66400
Ni2697     Ni  0.79707884  0.65032713  0.50118938     1.26300
O2698       O  0.84879847  0.71646195  0.52261170    -0.66600
O2699       O  0.76907487  0.61974387  0.52204191    -0.78900
C2700       C  0.76197619  0.67006300  0.47324560     0.84600
O2701       O  0.76570449  0.64760315  0.47963140    -0.66100
Ni2702     Ni  0.83968448  0.62544435  0.52648969     1.27400
Ni2703     Ni  0.85862177  0.68856686  0.50416533     1.26100
H2704       H  0.83212874  0.66933411  0.46758461     0.39100
N2705       N  0.89360795  0.50395674  0.71232656    -0.36600
N2706       N  0.86810794  0.96011636  0.74982765    -0.57100
N2707       N  0.89026422  0.50695533  0.78575060    -0.36600
N2708       N  0.91447269  0.55082853  0.74847435    -0.57100
C2709       C  0.87460455  0.98056255  0.69961990     0.27000
C2710       C  0.89793874  0.52801848  0.69923593     0.27000
C2711       C  0.87122356  0.98444565  0.79932575     0.27000
C2712       C  0.89477027  0.53186626  0.79829764     0.27000
C2713       C  0.86735550  0.94282622  0.73025829     0.35600
C2714       C  0.86594396  0.94443150  0.77029289     0.35600
C2715       C  0.93128024  0.56337712  0.72842386     0.35600
C2716       C  0.92982831  0.56514645  0.76845152     0.35600
C2717       C  0.86589000  0.98970913  0.67854334    -0.21800
C2718       C  0.88002806  0.51990598  0.67866372    -0.21800
C2719       C  0.86272617  0.99502825  0.82045490    -0.21800
C2720       C  0.87723358  0.52511494  0.81960074    -0.21800
C2721       C  0.86405002  0.91564518  0.73823613    -0.22900
C2722       C  0.86318307  0.91667871  0.76374427    -0.22900
C2723       C  0.95789402  0.58564647  0.73566034    -0.22900
C2724       C  0.95700567  0.58669958  0.76115716    -0.22900
C2725       C  0.86815867  0.95141595  0.70549022    -0.18200
C2726       C  0.92099472  0.55590510  0.70400234    -0.18200
C2727       C  0.91806489  0.55939296  0.79277783    -0.18200
C2728       C  0.86517309  0.95493353  0.79456323    -0.18200
H2729       H  0.85143712  0.97601911  0.66436009     0.14700
H2730       H  0.87888792  0.53408281  0.66436602     0.14700
H2731       H  0.84846202  0.98234229  0.83531586     0.14700
H2732       H  0.87639159  0.54017972  0.83378376     0.14700
H2733       H  0.86233431  0.89709128  0.72690793     0.12900
H2734       H  0.86074197  0.89908533  0.77601101     0.12900
H2735       H  0.97594470  0.59966903  0.72386541     0.12900
H2736       H  0.97418768  0.60171056  0.77290107     0.12900
H2737       H  0.90645407  0.50313610  0.72696561     0.26200
H2738       H  0.90328540  0.50508541  0.77108281     0.26200
N2739       N  0.61267088  0.60301173  0.71044002    -0.36600
N2740       N  0.57868720  0.61525668  0.74939675    -0.57100
N2741       N  0.61463493  0.60463649  0.78600211    -0.36600
N2742       N  0.64726054  0.59109922  0.74703008    -0.57100
C2743       C  0.59098933  0.60477951  0.69701344     0.27000
C2744       C  0.62466527  0.58788022  0.69670230     0.27000
C2745       C  0.59227275  0.60475927  0.80054431     0.27000
C2746       C  0.62821147  0.59097884  0.79863264     0.27000
C2747       C  0.56737975  0.62330371  0.72996622     0.35600
C2748       C  0.56738108  0.62268266  0.76991863     0.35600
C2749       C  0.66253044  0.59033308  0.72644483     0.35600
C2750       C  0.66451100  0.59253648  0.76617548     0.35600
C2751       C  0.59016665  0.59182033  0.67405212    -0.21800
C2752       C  0.61021607  0.57992293  0.67432822    -0.21800
C2753       C  0.59235225  0.59200643  0.82298111    -0.21800
C2754       C  0.61414271  0.58232049  0.82141119    -0.21800
C2755       C  0.54813735  0.63505200  0.73821206    -0.22900
C2756       C  0.54809665  0.63461049  0.76346214    -0.22900
C2757       C  0.69011003  0.59216809  0.73240636    -0.22900
C2758       C  0.69137247  0.59356698  0.75775045    -0.22900
C2759       C  0.57225241  0.61809247  0.70487578    -0.18200
C2760       C  0.64971196  0.58308246  0.70305635    -0.18200
C2761       C  0.65400463  0.58774824  0.79072162    -0.18200
C2762       C  0.57253979  0.61703082  0.79440417    -0.18200
H2763       H  0.57640039  0.59046199  0.65856364     0.14700
H2764       H  0.61385371  0.56735364  0.65929417     0.14700
H2765       H  0.57818176  0.58955836  0.83896633     0.14700
H2766       H  0.61916805  0.57065504  0.83581197     0.14700
H2767       H  0.53473134  0.64237055  0.72727238     0.12900
H2768       H  0.53470301  0.64159087  0.77557916     0.12900
H2769       H  0.70678470  0.59095221  0.71987781     0.12900
H2770       H  0.70926396  0.59370465  0.76874330     0.12900
H2771       H  0.62070300  0.61417146  0.72689654     0.26200
H2772       H  0.62208874  0.61601374  0.76959720     0.26200
N2773       N  0.50900446  0.90887357  0.78774392    -0.36600
N2774       N  0.55345804  0.93303034  0.74965566    -0.57100
N2775       N  0.50939934  0.90294935  0.71242632    -0.36600
N2776       N  0.96515423  0.87942658  0.75052978    -0.57100
C2777       C  0.53080468  0.93045333  0.80022529     0.27000
C2778       C  0.98329044  0.90316931  0.80007723     0.27000
C2779       C  0.53126231  0.92299008  0.69865679     0.27000
C2780       C  0.98406545  0.89448247  0.69959865     0.27000
C2781       C  0.57114201  0.94015618  0.76955570     0.35600
C2782       C  0.57124526  0.93774372  0.72946419     0.35600
C2783       C  0.95070637  0.86576564  0.77118620     0.35600
C2784       C  0.95086445  0.86231538  0.73125954     0.35600
C2785       C  0.51885817  0.93861071  0.82076951    -0.21800
C2786       C  0.98874723  0.92206913  0.82022827    -0.21800
C2787       C  0.51971660  0.92692988  0.67665740    -0.21800
C2788       C  0.98984242  0.90980803  0.67767468    -0.21800
C2789       C  0.60039498  0.94954069  0.76199485    -0.22900
C2790       C  0.60045720  0.94800388  0.73658202    -0.22900
C2791       C  0.92756715  0.83928497  0.76507397    -0.22900
C2792       C  0.92762318  0.83714494  0.73968245    -0.22900
C2793       C  0.56124460  0.94133584  0.79407976    -0.18200
C2794       C  0.95590796  0.87930072  0.79478211    -0.18200
C2795       C  0.95661359  0.87151143  0.70646690    -0.18200
C2796       C  0.56153022  0.93616807  0.70489471    -0.18200
H2797       H  0.53047781  0.95470870  0.83476645     0.14700
H2798       H  0.97289287  0.92305776  0.83376812     0.14700
H2799       H  0.53134258  0.94053403  0.66124131     0.14700
H2800       H  0.97441228  0.90815273  0.66339029     0.14700
H2801       H  0.61973988  0.95764187  0.77347997     0.12900
H2802       H  0.61990282  0.95454517  0.72475676     0.12900
H2803       H  0.91167430  0.82369367  0.77753951     0.12900
H2804       H  0.91183673  0.81960636  0.72867483     0.12900
H2805       H  0.51205445  0.89623032  0.77344640     0.26200
H2806       H  0.51232801  0.89314230  0.72827408     0.26200
C2807       C  0.51735397  0.68069477  0.59244848     0.02300
C2808       C  0.98637342  0.67172491  0.59289406     0.02300
C2809       C  0.96902740  0.65286352  0.61158189    -0.18200
C2810       C  0.98184470  0.64316801  0.62999731     0.02300
C2811       C  0.51287791  0.65323512  0.63034087     0.02300
C2812       C  0.53012268  0.67194886  0.61170212    -0.18200
H2813       H  0.55393042  0.67948647  0.61200627     0.04300
H2814       H  0.94518195  0.64510272  0.61145813     0.04300
C2815       C  0.68620637  0.50660211  0.58450900     0.02300
C2816       C  0.66659710  0.97665074  0.58461629     0.02300
C2817       C  0.64626433  0.96601308  0.60435096    -0.18200
C2818       C  0.64613082  0.98411299  0.62442101     0.02300
C2819       C  0.66738150  0.51379546  0.62487430     0.02300
C2820       C  0.68749873  0.52407273  0.60517682    -0.18200
H2821       H  0.70445369  0.54634590  0.60568448     0.04300
H2822       H  0.63069195  0.94316535  0.60433256     0.04300
C2823       C  0.83972277  0.82787957  0.90737880     0.02300
C2824       C  0.82273733  0.84440428  0.90925504     0.02300
C2825       C  0.82648924  0.86550040  0.89129570    -0.18200
C2826       C  0.84593599  0.87007133  0.87105400     0.02300
C2827       C  0.86181477  0.85249313  0.86847536     0.02300
C2828       C  0.85793844  0.83141107  0.88645145    -0.18200
H2829       H  0.86977477  0.81773170  0.88432525     0.04300
H2830       H  0.81431598  0.87887351  0.89332901     0.04300
C2831       C  0.84549287  0.82217581  0.59137909     0.02300
C2832       C  0.83227820  0.84205765  0.58975709     0.02300
C2833       C  0.83770409  0.86352404  0.60820565    -0.18200
C2834       C  0.85579713  0.86599160  0.62835503     0.02300
C2835       C  0.86857324  0.84569175  0.63059947     0.02300
C2836       C  0.86366887  0.82460824  0.61164658    -0.18200
H2837       H  0.87409088  0.80968764  0.61269334     0.04300
H2838       H  0.82703229  0.87826193  0.60716400     0.04300
C2839       C  0.67474506  0.98958777  0.90783951     0.02300
C2840       C  0.69617893  0.51854270  0.90488781     0.02300
C2841       C  0.69735885  0.53307338  0.88294937    -0.18200
C2842       C  0.67603419  0.52082613  0.86464902     0.02300
C2843       C  0.65275805  0.99234597  0.86818974     0.02300
C2844       C  0.65295442  0.97715654  0.88973981    -0.18200
H2845       H  0.63576493  0.95537245  0.89266572     0.04300
H2846       H  0.71430683  0.55520712  0.88079761     0.04300
C2847       C  0.51229740  0.67740127  0.91018160     0.02300
C2848       C  0.98100373  0.66757597  0.90976630     0.02300
C2849       C  0.96497854  0.64822882  0.89086817    -0.18200
C2850       C  0.97915099  0.63965596  0.87185830     0.02300
C2851       C  0.51027309  0.65037200  0.87161131     0.02300
C2852       C  0.52627506  0.66900068  0.89071669    -0.18200
H2853       H  0.55016838  0.67746345  0.89015288     0.04300
H2854       H  0.94104954  0.63951969  0.89101139     0.04300
O2855       O  0.61571972  0.84690747  0.47402888    -0.80800
O2856       O  0.72920543  0.85293541  0.52343443    -0.65500
O2857       O  0.66777498  0.83884712  0.47685788    -1.12100
C2858       C  0.61196593  0.76208351  0.53282889     1.06000
O2859       O  0.71777924  0.80578048  0.52014665    -0.78700
O2860       O  0.66970041  0.76141167  0.50175243    -0.66300
Ni2861     Ni  0.65703265  0.86845410  0.46593719     1.34900
C2862       C  0.65817951  0.76141173  0.48115713     0.84800
O2863       O  0.72713649  0.88108591  0.48098104    -0.79300
O2864       O  0.69725235  0.89257279  0.45723986    -0.89600
C2865       C  0.73439295  0.83092895  0.52855296     0.84400
O2866       O  0.66125154  0.88915429  0.49616678    -0.67800
O2867       O  0.63672720  0.76460274  0.54113911    -0.87000
C2868       C  0.67478288  0.89075034  0.51602434     0.85200
C2869       C  0.72291004  0.89722905  0.46481465     1.06800
H2870       H  0.66320540  0.82480954  0.53249533     0.38600
O2871       O  0.66891445  0.81661858  0.51814376    -1.09700
O2872       O  0.64753776  0.77947396  0.47592823    -0.66400
Ni2873     Ni  0.63834252  0.80741671  0.49505420     1.26300
O2874       O  0.68946742  0.87580904  0.51982693    -0.66600
O2875       O  0.60955312  0.77666241  0.51466215    -0.78900
C2876       C  0.59995764  0.82066850  0.46760775     0.84600
O2877       O  0.60849896  0.80083942  0.47146638    -0.66100
Ni2878     Ni  0.67720135  0.78592967  0.53037515     1.27400
Ni2879     Ni  0.69887324  0.84831076  0.49999617     1.26100
H2880       H  0.67334158  0.83093392  0.46222401     0.39100
O2881       O  0.69150466  0.78062418  0.02302781    -0.80800
O2882       O  0.69230723  0.88852579  0.97223121    -0.65500
O2883       O  0.67897961  0.82858604  0.01937788    -1.12100
C2884       C  0.60008127  0.77215090  0.96532871     1.06000
O2885       O  0.64483535  0.87760188  0.97374366    -0.78700
O2886       O  0.60279212  0.83044547  0.99439830    -0.66300
Ni2887     Ni  0.71049628  0.82138364  0.03180663     1.34900
C2888       C  0.60215118  0.81941124  0.01536720     0.84800
O2889       O  0.71707100  0.88801524  0.01570417    -0.79300
O2890       O  0.73142703  0.86182773  0.04133827    -0.89600
C2891       C  0.67101227  0.89512655  0.96775049     0.84400
O2892       O  0.73428304  0.82790491  0.00266427    -0.67800
O2893       O  0.60477152  0.79668847  0.95585432    -0.87000
C2894       C  0.73439536  0.83950026  0.98211318     0.85200
C2895       C  0.73250228  0.88599558  0.03344687     1.06800
H2896       H  0.66565007  0.82313461  0.96369391     0.38600
O2897       O  0.65674626  0.82843852  0.97782087    -1.09700
O2898       O  0.61915280  0.80732211  0.02072035    -0.66400
Ni2899     Ni  0.64774802  0.79818370  0.00162057     1.26300
O2900       O  0.71691754  0.85116911  0.97721906    -0.66600
O2901       O  0.61549514  0.76922949  0.98288364    -0.78900
C2902       C  0.66583790  0.76331949  0.03056487     0.84600
O2903       O  0.64361163  0.76861958  0.02571301    -0.66100
Ni2904     Ni  0.62611992  0.83671415  0.96516194     1.27400
Ni2905     Ni  0.68721562  0.85877782  0.99597309     1.26100
H2906       H  0.67031192  0.83386566  0.03370869     0.39100
N2907       N  0.98962044  0.60362853  0.21004703    -0.36600
N2908       N  0.53193502  0.61711409  0.24898268    -0.57100
N2909       N  0.98341764  0.60269379  0.28517272    -0.36600
N2910       N  0.94168763  0.59353112  0.24596611    -0.57100
C2911       C  0.51537558  0.61652990  0.19708623     0.27000
C2912       C  0.96778560  0.60254301  0.19523567     0.27000
C2913       C  0.50745908  0.61559764  0.29967503     0.27000
C2914       C  0.95932467  0.60031777  0.29877033     0.27000
C2915       C  0.54802059  0.61397789  0.22962819     0.35600
C2916       C  0.54505655  0.61415414  0.26963071     0.35600
C2917       C  0.92550039  0.58567950  0.22510736     0.35600
C2918       C  0.92213648  0.58565763  0.26523955     0.35600
C2919       C  0.50971670  0.62437132  0.17399201    -0.21800
C2920       C  0.97958990  0.61496584  0.17267057    -0.21800
C2921       C  0.49861952  0.62216228  0.32249622    -0.21800
C2922       C  0.96844587  0.61161792  0.32230216    -0.21800
C2923       C  0.57123904  0.60862285  0.23801439    -0.22900
C2924       C  0.56940861  0.60885445  0.26340900    -0.22900
C2925       C  0.89568967  0.57455923  0.23120722    -0.22900
C2926       C  0.89357263  0.57502575  0.25648970    -0.22900
C2927       C  0.54311262  0.61830716  0.20469511    -0.18200
C2928       C  0.93726437  0.58816210  0.20067310    -0.18200
C2929       C  0.92947617  0.58698982  0.29063434    -0.18200
C2930       C  0.53650874  0.61848799  0.29390445    -0.18200
H2931       H  0.52548822  0.63490315  0.15926910     0.14700
H2932       H  0.96762752  0.61683504  0.15686847     0.14700
H2933       H  0.51228396  0.63253102  0.33820041     0.14700
H2934       H  0.95558002  0.61262024  0.33820464     0.14700
H2935       H  0.58799278  0.60552841  0.22694216     0.12900
H2936       H  0.58440576  0.60595928  0.27597451     0.12900
H2937       H  0.87715738  0.56641232  0.21887237     0.12900
H2938       H  0.87316752  0.56744292  0.26718431     0.12900
H2939       H  0.98646888  0.59225412  0.22645896     0.26200
H2940       H  0.98293317  0.59256022  0.26820357     0.26200
N2941       N  0.90387023  0.90208581  0.28966955    -0.36600
N2942       N  0.91990216  0.87641753  0.24841161    -0.57100
N2943       N  0.90169558  0.90943611  0.21607040    -0.36600
N2944       N  0.88467386  0.93536425  0.25725196    -0.57100
C2945       C  0.92124203  0.89081040  0.29973143     0.27000
C2946       C  0.90407898  0.92372484  0.30482950     0.27000
C2947       C  0.92222445  0.90494275  0.20221063     0.27000
C2948       C  0.89879647  0.93250855  0.20657586     0.27000
C2949       C  0.91841315  0.85715936  0.26578923     0.35600
C2950       C  0.92030911  0.86387115  0.22639093     0.35600
C2951       C  0.87267135  0.93832137  0.27906343     0.35600
C2952       C  0.86813254  0.93900665  0.23938609     0.35600
C2953       C  0.93335753  0.90601595  0.32129026    -0.21800
C2954       C  0.92182045  0.92625013  0.32489243    -0.21800
C2955       C  0.93325903  0.92617162  0.18406394    -0.21800
C2956       C  0.91794616  0.94334239  0.18657866    -0.21800
C2957       C  0.91666115  0.83142723  0.25476794    -0.22900
C2958       C  0.91792434  0.83573844  0.22957775    -0.22900
C2959       C  0.84816887  0.94395407  0.27503920    -0.22900
C2960       C  0.84482795  0.94353682  0.24981105    -0.22900
C2961       C  0.92360807  0.86530298  0.29084512    -0.18200
C2962       C  0.88558424  0.93819794  0.30202551    -0.18200
C2963       C  0.87651727  0.94109463  0.21419118    -0.18200
C2964       C  0.92838261  0.88023760  0.20454872    -0.18200
H2965       H  0.94782761  0.90204415  0.33376552     0.14700
H2966       H  0.92543950  0.94040614  0.34089909     0.14700
H2967       H  0.94987665  0.92855444  0.17001735     0.14700
H2968       H  0.92024295  0.96138466  0.17490253     0.14700
H2969       H  0.91619671  0.81231386  0.26386428     0.12900
H2970       H  0.91884702  0.82074570  0.21536170     0.12900
H2971       H  0.83426797  0.94833403  0.28858363     0.12900
H2972       H  0.82802092  0.94743736  0.24031511     0.12900
H2973       H  0.88936475  0.89279692  0.27515518     0.26200
H2974       H  0.88738263  0.89521594  0.22915418     0.26200
C2975       C  0.81885093  0.52263417  0.40844208     0.02300
C2976       C  0.81496994  0.99369931  0.41282347     0.02300
C2977       C  0.82988082  0.98175977  0.39744983    -0.18200
C2978       C  0.84575578  0.99631316  0.37640207     0.02300
C2979       C  0.84781633  0.52470709  0.37063887     0.02300
C2980       C  0.83305344  0.53663254  0.38658026    -0.18200
H2981       H  0.83326460  0.55761373  0.38248034     0.04300
H2982       H  0.82776009  0.95988072  0.40112499     0.04300
N2983       N  0.60224211  0.98798334  0.28845778    -0.36600
N2984       N  0.62730299  0.53476354  0.25210579    -0.57100
N2985       N  0.61263549  0.99052381  0.21471004    -0.36600
N2986       N  0.59001875  0.94371923  0.25057467    -0.57100
C2987       C  0.61607903  0.51181099  0.30298046     0.27000
C2988       C  0.59679966  0.96412947  0.30233080     0.27000
C2989       C  0.63109885  0.51438608  0.20210576     0.27000
C2990       C  0.60987848  0.96689410  0.20107505     0.27000
C2991       C  0.62394429  0.54995545  0.27179299     0.35600
C2992       C  0.62967697  0.55112827  0.23195868     0.35600
C2993       C  0.57547496  0.92634425  0.26966913     0.35600
C2994       C  0.57951735  0.92782837  0.22976241     0.35600
C2995       C  0.61987730  0.50301512  0.32627837    -0.21800
C2996       C  0.60753181  0.97288536  0.32589736    -0.21800
C2997       C  0.64107224  0.50564468  0.18066910    -0.21800
C2998       C  0.62713897  0.97557115  0.17979474    -0.21800
C2999       C  0.62464049  0.57632047  0.26422378    -0.22900
C3000       C  0.62776799  0.57685338  0.23892593    -0.22900
C3001       C  0.55640216  0.89894799  0.26097757    -0.22900
C3002       C  0.55923242  0.89985546  0.23565532    -0.22900
C3003       C  0.62189596  0.54085547  0.29655217    -0.18200
C3004       C  0.58005005  0.93479000  0.29481901    -0.18200
C3005       C  0.58859961  0.93833754  0.20561945    -0.18200
C3006       C  0.63505007  0.54331858  0.20769582    -0.18200
H3007       H  0.62959051  0.51685598  0.34215551     0.14700
H3008       H  0.60604237  0.95897702  0.34133697     0.14700
H3009       H  0.65549934  0.51953151  0.16643584     0.14700
H3010       H  0.62867049  0.96167611  0.16485192     0.14700
H3011       H  0.62345168  0.59352275  0.27575395     0.12900
H3012       H  0.62925411  0.59449712  0.22714691     0.12900
H3013       H  0.54203059  0.88025642  0.27170528     0.12900
H3014       H  0.54797204  0.88186322  0.22305001     0.12900
H3015       H  0.59324112  0.98800045  0.27133524     0.26200
H3016       H  0.59851684  0.99028638  0.22924579     0.26200
C3017       C  0.81209334  0.98062686  0.09261671     0.02300
C3018       C  0.82792852  0.51068882  0.08835531     0.02300
C3019       C  0.84917854  0.52817226  0.10526250    -0.18200
C3020       C  0.85514990  0.51633969  0.12649564     0.02300
C3021       C  0.83813732  0.98600794  0.13146249     0.02300
C3022       C  0.81632298  0.96898805  0.11465559    -0.18200
H3023       H  0.80266151  0.94614901  0.11848643     0.04300
H3024       H  0.86122717  0.55140830  0.10180288     0.04300
C3025       C  0.64401468  0.66801177  0.41169862     0.02300
C3026       C  0.66082674  0.65128614  0.41222751     0.02300
C3027       C  0.65674823  0.63029477  0.39351335    -0.18200
C3028       C  0.63621041  0.62531048  0.37474197     0.02300
C3029       C  0.61870424  0.64119915  0.37472475     0.02300
C3030       C  0.62304695  0.66260566  0.39305692    -0.18200
H3031       H  0.61015150  0.67532002  0.39272596     0.04300
H3032       H  0.67018742  0.61810305  0.39321187     0.04300
C3033       C  0.65934412  0.66659253  0.09143782     0.02300
C3034       C  0.67837000  0.65193361  0.09138082     0.02300
C3035       C  0.67393623  0.63080403  0.10958347    -0.18200
C3036       C  0.65261746  0.62508701  0.12839369     0.02300
C3037       C  0.63377998  0.63947410  0.12845606     0.02300
C3038       C  0.63719978  0.65982071  0.10996256    -0.18200
H3039       H  0.62282362  0.67102551  0.11034356     0.04300
H3040       H  0.68733203  0.61857370  0.10919985     0.04300
C3041       C  0.51172214  0.81531390  0.40121647     0.02300
C3042       C  0.98129693  0.79778165  0.39798038     0.02300
C3043       C  0.96776816  0.80214102  0.37699046    -0.18200
C3044       C  0.98319174  0.82438596  0.35995992     0.02300
C3045       C  0.51352814  0.84276733  0.36395065     0.02300
C3046       C  0.52743775  0.83730460  0.38414919    -0.18200
H3047       H  0.55076930  0.85078909  0.38696342     0.04300
H3048       H  0.94434294  0.78887828  0.37450827     0.04300
C3049       C  0.99099811  0.82490213  0.08689584     0.02300
C3050       C  0.52221973  0.83684241  0.08617240     0.02300
C3051       C  0.53837243  0.85725201  0.10421375    -0.18200
C3052       C  0.52436579  0.86498093  0.12396653     0.02300
C3053       C  0.99290017  0.85309345  0.12481216     0.02300
C3054       C  0.97690036  0.83292439  0.10640751    -0.18200
H3055       H  0.95297631  0.82236146  0.10777033     0.04300
H3056       H  0.56232640  0.86691456  0.10305236     0.04300
C3057       C  0.54206333  0.91430791  0.32836196    -0.09100
C3058       C  0.56506190  0.91237794  0.31412374     0.07100
C3059       C  0.57251919  0.88876628  0.31789250    -0.02900
C3060       C  0.55598736  0.86684467  0.33467009    -0.07300
C3061       C  0.53160902  0.86768882  0.34763753     0.06200
C3062       C  0.52564263  0.89246456  0.34524412    -0.02300
Br3063     Br  0.99677831  0.89853968  0.36563802    -0.02000
H3064       H  0.53671703  0.93282811  0.32616475     0.10100
H3065       H  0.56152648  0.84846400  0.33698755     0.08100
Br3066     Br  0.60487903  0.88540227  0.30048205    -0.02500
C3067       C  0.53935341  0.91032729  0.14994772    -0.09100
C3068       C  0.54320012  0.88505447  0.14346136     0.07100
C3069       C  0.56336835  0.87816324  0.15698514    -0.02900
C3070       C  0.57838658  0.89592016  0.17688863    -0.07300
C3071       C  0.57330903  0.92023637  0.18398153     0.06200
C3072       C  0.55358411  0.92740370  0.17036711    -0.02300
Br3073     Br  0.04369296  0.95906389  0.18005931    -0.02000
H3074       H  0.02405294  0.91596242  0.13982041     0.10100
H3075       H  0.59354481  0.89035150  0.18728273     0.08100
Br3076     Br  0.56986392  0.84372888  0.15057275    -0.02500
C3077       C  0.65211707  0.58800500  0.31833542    -0.09100
C3078       C  0.62561398  0.56249842  0.31673340     0.07100
C3079       C  0.60288857  0.55795721  0.33432689    -0.02900
C3080       C  0.60769158  0.57762248  0.35393942    -0.07300
C3081       C  0.63356204  0.60357855  0.35507691     0.06200
C3082       C  0.65586711  0.60889506  0.33692964    -0.02300
Br3083     Br  0.69103375  0.64482473  0.33611649    -0.02000
H3084       H  0.66959933  0.59198048  0.30470764     0.10100
H3085       H  0.59075514  0.57292307  0.36803076     0.08100
Br3086     Br  0.56404821  0.52676071  0.33137361    -0.02500
C3087       C  0.62543795  0.55535263  0.16505139    -0.09100
C3088       C  0.64180483  0.56460068  0.18690035     0.07100
C3089       C  0.66443780  0.59340714  0.18796054    -0.02900
C3090       C  0.66733847  0.61315062  0.16904528    -0.07300
C3091       C  0.65016561  0.60378652  0.14775681     0.06200
C3092       C  0.63109839  0.57407672  0.14502995    -0.02300
Br3093     Br  0.61541712  0.55743380  0.11355513    -0.02000
H3094       H  0.60886060  0.53306191  0.16313107     0.10100
H3095       H  0.68363764  0.63562148  0.17057345     0.08100
Br3096     Br  0.69347881  0.60610500  0.21345396    -0.02500
C3097       C  0.93997125  0.83317978  0.34807550    -0.09100
C3098       C  0.96571544  0.83015813  0.34061741     0.07100
C3099       C  0.97406449  0.83342329  0.31540771    -0.02900
C3100       C  0.95995140  0.84452723  0.29929483    -0.07300
C3101       C  0.93548477  0.84961245  0.30726698     0.06200
C3102       C  0.92427442  0.84172141  0.33149690    -0.02300
Br3103     Br  0.88798234  0.84256017  0.34325015    -0.02000
H3104       H  0.93235510  0.82961084  0.36714591     0.10100
H3105       H  0.96833715  0.84939502  0.28050705     0.08100
Br3106     Br  0.00228427  0.82060702  0.30143648    -0.02500
C3107       C  0.98355149  0.85888672  0.16993234    -0.09100
C3108       C  0.97588506  0.85968477  0.14521359     0.07100
C3109       C  0.95191502  0.86676339  0.14043114    -0.02900
C3110       C  0.93549535  0.87111684  0.15998722    -0.07300
C3111       C  0.94451917  0.87229259  0.18444277     0.06200
C3112       C  0.96966936  0.86734877  0.18917154    -0.02300
Br3113     Br  0.98816430  0.87527764  0.22079968    -0.02000
H3114       H  0.50143570  0.85312381  0.17432641     0.10100
H3115       H  0.91648392  0.87530745  0.15595718     0.08100
Br3116     Br  0.94201396  0.87406908  0.10802058    -0.02500
C3117       C  0.84836889  0.93805194  0.33279361    -0.09100
C3118       C  0.87754189  0.95139598  0.32395793     0.07100
C3119       C  0.89743506  0.97789458  0.33483907    -0.02900
C3120       C  0.88735797  0.99112354  0.35352875    -0.07300
C3121       C  0.85724477  0.97948431  0.36011077     0.06200
C3122       C  0.83774418  0.95232224  0.34989316    -0.02300
Br3123     Br  0.79569772  0.93519353  0.35591795    -0.02000
H3124       H  0.83313016  0.91748683  0.32475829     0.10100
H3125       H  0.90250224  0.01177228  0.36147674     0.08100
Br3126     Br  0.93760425  0.99846124  0.32337286    -0.02500
C3127       C  0.84657769  0.98573749  0.17676661    -0.09100
C3128       C  0.84273995  0.97152413  0.15371551     0.07100
C3129       C  0.84607889  0.94499890  0.15205367    -0.02900
C3130       C  0.85378889  0.93413640  0.17289012    -0.07300
C3131       C  0.86172116  0.95062452  0.19487123     0.06200
C3132       C  0.85838217  0.97695029  0.19642422    -0.02300
Br3133     Br  0.87513063  0.00490863  0.22211807    -0.02000
H3134       H  0.84332665  0.50557004  0.17880620     0.10100
H3135       H  0.85633018  0.91386735  0.17119520     0.08100
Br3136     Br  0.84541747  0.92451766  0.12163443    -0.02500
C3137       C  0.86490481  0.52841950  0.32602047    -0.09100
C3138       C  0.86529131  0.54243422  0.34879671     0.07100
C3139       C  0.88356288  0.57305655  0.35025118    -0.02900
C3140       C  0.90066116  0.58780694  0.32967787    -0.07300
C3141       C  0.90489012  0.57228890  0.30931590     0.06200
C3142       C  0.88643164  0.54203443  0.30776923    -0.02300
Br3143     Br  0.89179888  0.51714056  0.28299290    -0.02000
H3144       H  0.84968887  0.00581511  0.32314824     0.10100
H3145       H  0.91262937  0.61137254  0.33053128     0.08100
Br3146     Br  0.89025692  0.59612138  0.38011954    -0.02500
C3147       C  0.92180584  0.54892346  0.16840304    -0.09100
C3148       C  0.91752716  0.57216409  0.17984335     0.07100
C3149       C  0.89507394  0.57933277  0.17113483    -0.02900
C3150       C  0.87523596  0.56120449  0.15353141    -0.07300
C3151       C  0.87831732  0.53668301  0.14335571     0.06200
C3152       C  0.90307609  0.53187471  0.14980192    -0.02300
Br3153     Br  0.91288394  0.50313913  0.13313232    -0.02000
H3154       H  0.93988386  0.54399721  0.17402567     0.10100
H3155       H  0.85712569  0.56608922  0.14794768     0.08100
Br3156     Br  0.89144564  0.61410899  0.18204471    -0.02500
C3157       C  0.54975690  0.60757617  0.33582623    -0.09100
C3158       C  0.55821264  0.62493765  0.31450096     0.07100
C3159       C  0.58639866  0.64895385  0.31391650    -0.02900
C3160       C  0.60582975  0.65388067  0.33359952    -0.07300
C3161       C  0.59699277  0.63662836  0.35487103     0.06200
C3162       C  0.56804295  0.61438622  0.35637102    -0.02300
Br3163     Br  0.55165676  0.59403295  0.38654106    -0.02000
H3164       H  0.52812763  0.58938579  0.33697524     0.10100
H3165       H  0.62775838  0.67162267  0.33252733     0.08100
Br3166     Br  0.59888085  0.67690621  0.28767597    -0.02500
C3167       C  0.56082498  0.60629078  0.16404252    -0.09100
C3168       C  0.56718247  0.62373676  0.18562490     0.07100
C3169       C  0.59575724  0.64684593  0.18788895    -0.02900
C3170       C  0.61738201  0.65102481  0.16948744    -0.07300
C3171       C  0.61062398  0.63383496  0.14789779     0.06200
C3172       C  0.58172552  0.61212642  0.14484714    -0.02300
Br3173     Br  0.56887082  0.59195986  0.11399061    -0.02000
H3174       H  0.53896102  0.58885082  0.16160189     0.10100
H3175       H  0.63931378  0.66846470  0.17161190     0.08100
Br3176     Br  0.60592597  0.67501271  0.21441823    -0.02500
C3177       C  0.68741737  0.74048905  0.05981834    -0.09100
C3178       C  0.66330635  0.73743837  0.04513048     0.07100
C3179       C  0.63854379  0.71007276  0.04467897    -0.02900
C3180       C  0.63829938  0.68681158  0.05885126    -0.07300
C3181       C  0.66235247  0.69016790  0.07376361     0.06200
C3182       C  0.68692759  0.71753504  0.07425613    -0.02300
Br3183     Br  0.71907218  0.72592400  0.09632109    -0.02000
H3184       H  0.70655381  0.76135929  0.06081383     0.10100
H3185       H  0.61894811  0.66607336  0.05861115     0.08100
Br3186     Br  0.60495933  0.70294255  0.02461539    -0.02500
C3187       C  0.55182306  0.80988044  0.07243442    -0.09100
C3188       C  0.53926831  0.82922652  0.06689194     0.07100
C3189       C  0.54725871  0.84482179  0.04478251    -0.02900
C3190       C  0.56739132  0.84091296  0.02851989    -0.07300
C3191       C  0.58047195  0.82172321  0.03382909     0.06200
C3192       C  0.57213767  0.80583808  0.05615510    -0.02300
Br3193     Br  0.58725281  0.77841979  0.06587749    -0.02000
H3194       H  0.54629590  0.79838883  0.08984685     0.10100
H3195       H  0.57334646  0.85375374  0.01181549     0.08100
Br3196     Br  0.53300755  0.87347840  0.03692200    -0.02500
C3197       C  0.76299119  0.95509736  0.07274736    -0.09100
C3198       C  0.79280101  0.96013393  0.07390639     0.07100
C3199       C  0.80294755  0.94226295  0.05987164    -0.02900
C3200       C  0.78309281  0.91881223  0.04609225    -0.07300
C3201       C  0.75309368  0.91300696  0.04568496     0.06200
C3202       C  0.74312330  0.93173922  0.05863566    -0.02300
Br3203     Br  0.70214930  0.92437456  0.05964659    -0.02000
H3204       H  0.75490833  0.96843471  0.08376434     0.10100
H3205       H  0.79097765  0.90460786  0.03608227     0.08100
Br3206     Br  0.84349388  0.94812373  0.05975670    -0.02500
C3207       C  0.64304639  0.70898757  0.47111038    -0.09100
C3208       C  0.65568699  0.73814091  0.46312018     0.07100
C3209       C  0.66483217  0.74406062  0.43823418    -0.02900
C3210       C  0.66110107  0.72095358  0.42184299    -0.07300
C3211       C  0.64830162  0.69181412  0.42984623     0.06200
C3212       C  0.63896002  0.68590178  0.45466611    -0.02300
Br3213     Br  0.61860110  0.64671648  0.46655881    -0.02000
H3214       H  0.63547150  0.70408770  0.49011321     0.10100
H3215       H  0.66834920  0.72571693  0.40276310     0.08100
Br3216     Br  0.68385209  0.78325333  0.42608050    -0.02500
C3217       C  0.56576302  0.79496948  0.43400132    -0.09100
C3218       C  0.57230100  0.81391211  0.45452703     0.07100
C3219       C  0.55496710  0.82944341  0.45959310    -0.02900
C3220       C  0.53383922  0.82837296  0.44268258    -0.07300
C3221       C  0.52863685  0.81084591  0.42135031     0.06200
C3222       C  0.54420847  0.79348057  0.41736989    -0.02300
Br3223     Br  0.53936906  0.77027114  0.38791659    -0.02000
H3224       H  0.57896865  0.78299755  0.42982572     0.10100
H3225       H  0.52248738  0.84234922  0.44562750     0.08100
Br3226     Br  0.55922534  0.85243050  0.48918284    -0.02500
C3227       C  0.80003765  0.95596595  0.44619597    -0.09100
C3228       C  0.79238671  0.97347764  0.43036730     0.08300
C3229       C  0.76222695  0.96629861  0.42709078    -0.02900
C3230       C  0.74073089  0.94230946  0.43922497    -0.07300
C3231       C  0.74801358  0.92362924  0.45409905     0.06200
C3232       C  0.77836305  0.93110946  0.45774447    -0.02300
Br3233     Br  0.79213773  0.90737683  0.47623513    -0.02000
H3234       H  0.82312265  0.96060462  0.44832899     0.10100
H3235       H  0.71786473  0.93764147  0.43589410     0.08100
Br3236     Br  0.74846391  0.98528085  0.40327151    -0.02500
C3237       C  0.52901062  0.72533735  0.93214882    -0.09100
C3238       C  0.53173421  0.69903195  0.92855242     0.07100
C3239       C  0.55549420  0.69573682  0.93987536    -0.02900
C3240       C  0.57688854  0.71922624  0.95283132    -0.07300
C3241       C  0.57515207  0.74620544  0.95488115     0.06200
C3242       C  0.54996936  0.74853961  0.94541506    -0.02300
Br3243     Br  0.54217169  0.78256586  0.95001133    -0.02000
H3244       H  0.51110750  0.72843218  0.92368823     0.10100
H3245       H  0.59555407  0.71672199  0.96044715     0.08100
Br3246     Br  0.56040138  0.65995834  0.93794633    -0.02500
C3247       C  0.70093163  0.96328887  0.92729530    -0.09100
C3248       C  0.67662629  0.97045637  0.92758458     0.07100
C3249       C  0.65253716  0.95522994  0.94351727    -0.02900
C3250       C  0.65229233  0.93217749  0.95760706    -0.07300
C3251       C  0.67554694  0.92326641  0.95593511     0.06200
C3252       C  0.70059510  0.93988153  0.94111276    -0.02300
Br3253     Br  0.73370878  0.93024382  0.93656643    -0.02000
H3254       H  0.71942443  0.97459756  0.91482528     0.10100
H3255       H  0.63303662  0.92033267  0.96916732     0.08100
Br3256     Br  0.61877470  0.96413980  0.94582323    -0.02500
C3257       C  0.78667776  0.85885645  0.54206758    -0.09100
C3258       C  0.75983223  0.83381473  0.54379353     0.07100
C3259       C  0.75775860  0.81121553  0.55992954    -0.02900
C3260       C  0.78237766  0.81351818  0.57313259    -0.07300
C3261       C  0.80912589  0.83853277  0.57154991     0.06200
C3262       C  0.81110476  0.86148909  0.55594309    -0.02300
Br3263     Br  0.84647922  0.89702340  0.55311278    -0.02000
H3264       H  0.78866229  0.87646366  0.52995685     0.10100
H3265       H  0.78009117  0.79638918  0.58592700     0.08100
Br3266     Br  0.72109177  0.77825394  0.56735374    -0.02500
C3267       C  0.77043382  0.82975915  0.92214482    -0.09100
C3268       C  0.80019318  0.84026083  0.92893998     0.07100
C3269       C  0.80797442  0.84991142  0.95339379    -0.02900
C3270       C  0.78616548  0.84930410  0.97043952    -0.07300
C3271       C  0.75653835  0.83963943  0.96342685     0.06200
C3272       C  0.74865993  0.82924014  0.93915258    -0.02300
Br3273     Br  0.70837079  0.81262206  0.92874003    -0.02000
H3274       H  0.76420073  0.82226000  0.90336096     0.10100
H3275       H  0.79249710  0.85712896  0.98913687     0.08100
Br3276     Br  0.84819540  0.86596822  0.96393289    -0.02500
C3277       C  0.69447834  0.95024126  0.56570741    -0.09100
C3278       C  0.66885552  0.95531213  0.56636621     0.07100
C3279       C  0.64472291  0.93751211  0.55181462    -0.02900
C3280       C  0.64694778  0.91602534  0.53634641    -0.07300
C3281       C  0.67287068  0.91143491  0.53506712     0.06200
C3282       C  0.69678268  0.92870174  0.55017007    -0.02300
Br3283     Br  0.73363122  0.92519520  0.54952630    -0.02000
H3284       H  0.71266538  0.96278440  0.57766408     0.10100
H3285       H  0.62824079  0.90292496  0.52501810     0.08100
Br3286     Br  0.60831059  0.44181464  0.55193871    -0.02500
C3287       C  0.58195983  0.71184933  0.54743728    -0.09100
C3288       C  0.58478325  0.74048445  0.54477123     0.07100
C3289       C  0.56249437  0.74800945  0.55471496    -0.02900
C3290       C  0.53932973  0.72766408  0.56897919    -0.07300
C3291       C  0.53757278  0.69951438  0.57293251     0.06200
C3292       C  0.55841675  0.69129933  0.56093695    -0.02300
Br3293     Br  0.55615376  0.65236145  0.56270753    -0.02000
H3294       H  0.59844776  0.70553727  0.53923009     0.10100
H3295       H  0.52362502  0.73439437  0.57808051     0.08100
Br3296     Br  0.56407537  0.78643504  0.55127123    -0.02500
C3297       C  0.90284955  0.86619918  0.80641627    -0.09100
C3298       C  0.93121282  0.86999766  0.81356616     0.07100
C3299       C  0.93531471  0.86486100  0.83845421    -0.02900
C3300       C  0.91284820  0.86034854  0.85591596    -0.07300
C3301       C  0.88474043  0.85717104  0.84882964     0.06200
C3302       C  0.87931618  0.85770300  0.82345227    -0.02300
Br3303     Br  0.84018432  0.84293894  0.81055724    -0.02000
H3304       H  0.89862804  0.86878472  0.78728368     0.10100
H3305       H  0.91720489  0.85853518  0.87516629     0.08100
Br3306     Br  0.96998139  0.86147447  0.84962068    -0.02500
C3307       C  0.59743818  0.93777507  0.82327077    -0.09100
C3308       C  0.58345607  0.95431980  0.81394413     0.07100
C3309       C  0.59145590  0.98291593  0.82308096    -0.02900
C3310       C  0.61248843  0.99416408  0.84175838    -0.07300
C3311       C  0.62780178  0.97826822  0.85034177     0.06200
C3312       C  0.61966015  0.94947423  0.84091122    -0.02300
Br3313     Br  0.63962544  0.92565064  0.84927796    -0.02000
H3314       H  0.59169997  0.91587365  0.81609451     0.10100
H3315       H  0.61767725  0.01594307  0.84891637     0.08100
Br3316     Br  0.57546653  0.00786968  0.80943481    -0.02500
C3317       C  0.60144174  0.93517704  0.67695415    -0.09100
C3318       C  0.58376372  0.94928349  0.68475103     0.07100
C3319       C  0.58692692  0.97508614  0.67287623    -0.02900
C3320       C  0.60577089  0.98497436  0.65227132    -0.07300
C3321       C  0.62395856  0.97122083  0.64469407     0.06200
C3322       C  0.62211977  0.94645323  0.65768519    -0.02300
Br3323     Br  0.64904644  0.92876978  0.65155179    -0.02000
H3324       H  0.59967998  0.91573728  0.68638923     0.10100
H3325       H  0.60730160  0.50434429  0.64285249     0.08100
Br3326     Br  0.56681467  0.49808116  0.68475719    -0.02500
C3327       C  0.90418567  0.85794334  0.69403200    -0.09100
C3328       C  0.93234034  0.85948701  0.68790806     0.07100
C3329       C  0.93708898  0.85095451  0.66378380    -0.02900
C3330       C  0.91615191  0.84647752  0.64551022    -0.07300
C3331       C  0.88877798  0.84716304  0.65124971     0.06200
C3332       C  0.88195902  0.84978524  0.67641861    -0.02300
Br3333     Br  0.84234351  0.83857387  0.68860419    -0.02000
H3334       H  0.89920208  0.86272390  0.71271783     0.10100
H3335       H  0.92153178  0.84274121  0.62665147     0.08100
Br3336     Br  0.97133114  0.84440187  0.65490162    -0.02500
C3337       C  0.56428674  0.65472177  0.81947256    -0.09100
C3338       C  0.55669936  0.62497153  0.81469159     0.07100
C3339       C  0.53373639  0.60372451  0.82855354    -0.02900
C3340       C  0.52045959  0.61253571  0.84796550    -0.07300
C3341       C  0.52668704  0.64212898  0.85193367     0.06200
C3342       C  0.54882527  0.66338828  0.83729556    -0.02300
Br3343     Br  0.55784954  0.70429733  0.83986205    -0.02000
H3344       H  0.58154573  0.67122212  0.80853876     0.10100
H3345       H  0.00496234  0.59601333  0.85977741     0.08100
Br3346     Br  0.51853573  0.56258269  0.82110955    -0.02500
C3347       C  0.66856784  0.54777872  0.80144033    -0.09100
C3348       C  0.66761320  0.57452505  0.80793189     0.07100
C3349       C  0.67609075  0.58615484  0.83177679    -0.02900
C3350       C  0.67916749  0.56847529  0.84991491    -0.07300
C3351       C  0.67698243  0.54029914  0.84406979     0.06200
C3352       C  0.67482697  0.53144063  0.81908593    -0.02300
Br3353     Br  0.68073668  0.49787172  0.80813153    -0.02000
H3354       H  0.66357671  0.53913264  0.78280153     0.10100
H3355       H  0.68231030  0.57649210  0.86881834     0.08100
Br3356     Br  0.68152302  0.62513019  0.84078145    -0.02500
C3357       C  0.66932072  0.58016930  0.66096059    -0.09100
C3358       C  0.66180270  0.56845808  0.68469777     0.07100
C3359       C  0.66180757  0.54100069  0.68936335    -0.02900
C3360       C  0.66764392  0.52538744  0.67003803    -0.07300
C3361       C  0.66929091  0.53456033  0.64548088     0.06200
C3362       C  0.67093338  0.56284827  0.64111916    -0.02300
Br3363     Br  0.67036837  0.57786314  0.60883834    -0.02000
H3364       H  0.66991319  0.60147249  0.65732050     0.10100
H3365       H  0.66787405  0.50451645  0.67396342     0.08100
Br3366     Br  0.64991597  0.52159221  0.72057934    -0.02500
C3367       C  0.52145972  0.61466300  0.65270446    -0.09100
C3368       C  0.52795307  0.64436089  0.64969277     0.07100
C3369       C  0.54902973  0.66531056  0.66509112    -0.02900
C3370       C  0.56386902  0.65638240  0.68232506    -0.07300
C3371       C  0.55635600  0.62655210  0.68591763     0.06200
C3372       C  0.53367813  0.60556221  0.67185388    -0.02300
Br3373     Br  0.51772682  0.56442184  0.67874596    -0.02000
H3374       H  0.50666789  0.59833533  0.64031194     0.10100
H3375       H  0.58066894  0.67269974  0.69359107     0.08100
Br3376     Br  0.55734558  0.70610259  0.66410749    -0.02500
C3377       C  0.93794478  0.57016399  0.83561393    -0.09100
C3378       C  0.93200762  0.58068171  0.81343394     0.07100
C3379       C  0.93894461  0.61088611  0.81185600    -0.02900
C3380       C  0.95458907  0.63002822  0.83091477    -0.07300
C3381       C  0.96096099  0.61920837  0.85260152     0.06200
C3382       C  0.95031191  0.58886262  0.85560520    -0.02300
Br3383     Br  0.45249039  0.57206972  0.88665189    -0.02000
H3384       H  0.93245540  0.54711782  0.83765537     0.10100
H3385       H  0.96122690  0.65332168  0.82907719     0.08100
Br3386     Br  0.92556711  0.62684759  0.78537984    -0.02500
C3387       C  0.83120062  0.91355051  0.82056056    -0.09100
C3388       C  0.85972465  0.93509624  0.81584561     0.07100
C3389       C  0.88304308  0.93719609  0.83111576    -0.02900
C3390       C  0.87798346  0.91651625  0.84958640    -0.07300
C3391       C  0.84977274  0.89376973  0.85339586     0.06200
C3392       C  0.82592959  0.89328849  0.83945931    -0.02300
Br3393     Br  0.78625816  0.86375718  0.84360923    -0.02000
H3394       H  0.81309358  0.91216174  0.80916492     0.10100
H3395       H  0.89629953  0.91773989  0.86062816     0.08100
Br3396     Br  0.92239794  0.96726554  0.82682657    -0.02500
C3397       C  0.94033030  0.60738260  0.68855899    -0.09100
C3398       C  0.93396122  0.57775174  0.68367746     0.07100
C3399       C  0.94120433  0.57012533  0.65986962    -0.02900
C3400       C  0.95319501  0.59155910  0.64179160    -0.07300
C3401       C  0.96241783  0.62117911  0.64778540     0.06200
C3402       C  0.95582475  0.62911453  0.67135686    -0.02300
Br3403     Br  0.96910307  0.66928075  0.68131191    -0.02000
H3404       H  0.93464883  0.61392868  0.70636667     0.10100
H3405       H  0.95856655  0.58545366  0.62366538     0.08100
Br3406     Br  0.94021867  0.53248514  0.65139376    -0.02500
C3407       C  0.83413187  0.88916029  0.65912738    -0.09100
C3408       C  0.85947149  0.88936073  0.64697881     0.07100
C3409       C  0.88728372  0.91194501  0.65255761    -0.02900
C3410       C  0.88961558  0.93192751  0.67164934    -0.07300
C3411       C  0.86445915  0.93027588  0.68495527     0.06200
C3412       C  0.83647807  0.90919857  0.67811455    -0.02300
Br3413     Br  0.80098940  0.90725181  0.69399390    -0.02000
H3414       H  0.81246594  0.87258045  0.65443831     0.10100
H3415       H  0.91114466  0.94892240  0.67611281     0.08100
Br3416     Br  0.92219936  0.91768222  0.63355742    -0.02500
C3417       C  0.94175762  0.66675697  0.53657394    -0.09100
C3418       C  0.92569046  0.68253273  0.54466046     0.07100
C3419       C  0.93387297  0.69907367  0.56673188    -0.02900
C3420       C  0.95633656  0.69782100  0.58104676    -0.07300
C3421       C  0.97051159  0.67993982  0.57392328     0.06200
C3422       C  0.96362725  0.66495993  0.55113385    -0.02300
Br3423     Br  0.47976966  0.63801831  0.54090749    -0.02000
H3424       H  0.93550964  0.65367465  0.51978543     0.10100
H3425       H  0.96102281  0.70885601  0.59886131     0.08100
Br3426     Br  0.91210046  0.71966357  0.58026886    -0.02500
C3427       C  0.83434360  0.57143678  0.46445549    -0.09100
C3428       C  0.81791920  0.58758843  0.45999050     0.07100
C3429       C  0.79878679  0.57963930  0.43958655    -0.02900
C3430       C  0.79752528  0.55676216  0.42380479    -0.07300
C3431       C  0.81463492  0.54125600  0.42814728     0.06200
C3432       C  0.83308705  0.54881337  0.44880203    -0.02300
Br3433     Br  0.86016914  0.03180025  0.45511019    -0.02000
H3434       H  0.84888811  0.57669493  0.48011362     0.10100
H3435       H  0.78414833  0.55191587  0.40743023     0.08100
Br3436     Br  0.77551269  0.60013069  0.43102005    -0.02500
C3437       C  0.73502997  0.52651585  0.56446231    -0.09100
C3438       C  0.70558146  0.52194623  0.56352339     0.07100
C3439       C  0.69793147  0.54035159  0.54876144    -0.02900
C3440       C  0.72007343  0.56470019  0.53712442    -0.07300
C3441       C  0.75007847  0.57073132  0.53960793     0.06200
C3442       C  0.75718925  0.55019666  0.55265469    -0.02300
Br3443     Br  0.79651191  0.55335725  0.55808636    -0.02000
H3444       H  0.74123814  0.51317572  0.57645510     0.10100
H3445       H  0.71383632  0.57930362  0.52674534     0.08100
Br3446     Br  0.65745694  0.53412054  0.54603781    -0.02500
C3447       C  0.91776306  0.73284864  0.42613384    -0.09100
C3448       C  0.91368459  0.74477181  0.44879660     0.07100
C3449       C  0.93558187  0.77185397  0.45668389    -0.02900
C3450       C  0.95871487  0.78835753  0.44047497    -0.07300
C3451       C  0.96184610  0.77730587  0.41707358     0.06200
C3452       C  0.94214664  0.74845483  0.41072036    -0.02300
Br3453     Br  0.94778636  0.72966744  0.38114948    -0.02000
H3454       H  0.90184890  0.71136352  0.42036508     0.10100
H3455       H  0.97318014  0.81049736  0.44572148     0.08100
Br3456     Br  0.93408446  0.78787275  0.48881207    -0.02500
C3457       C  0.71007048  0.63941154  0.45965990    -0.09100
C3458       C  0.73489619  0.66663302  0.45960078     0.07100
C3459       C  0.73365467  0.68949144  0.44537723    -0.02900
C3460       C  0.70894829  0.68427359  0.43093068    -0.07300
C3461       C  0.68471268  0.65687087  0.43044552     0.06200
C3462       C  0.68515382  0.63450783  0.44550578    -0.02300
Br3463     Br  0.65204161  0.59696726  0.44774593    -0.02000
H3464       H  0.71004304  0.62168238  0.47065907     0.10100
H3465       H  0.70915044  0.70155413  0.41924480     0.08100
Br3466     Br  0.76521108  0.72810297  0.44313519    -0.02500
C3467       C  0.83352356  0.75005341  0.55903505    -0.09100
C3468       C  0.84196332  0.75889520  0.53453598     0.07100
C3469       C  0.85030148  0.78861772  0.52867073    -0.02900
C3470       C  0.85035653  0.80859015  0.54717947    -0.07300
C3471       C  0.84216229  0.79970990  0.57172982     0.06200
C3472       C  0.83326799  0.76991269  0.57741180    -0.02300
Br3473     Br  0.81920421  0.75462521  0.60972165    -0.02000
H3474       H  0.82659611  0.72733677  0.56390370     0.10100
H3475       H  0.85773143  0.83142219  0.54251310     0.08100
Br3476     Br  0.86410503  0.80392786  0.49630187    -0.02500
C3477       C  0.72159420  0.57818116  0.95301058    -0.09100
C3478       C  0.75197120  0.58567291  0.95324918     0.07100
C3479       C  0.76310684  0.56763844  0.94062075    -0.02900
C3480       C  0.74407887  0.54362232  0.92660292    -0.07300
C3481       C  0.71382766  0.53689509  0.92547731     0.06200
C3482       C  0.70254327  0.55395665  0.93941768    -0.02300
Br3483     Br  0.66172091  0.54702911  0.93815685    -0.02000
H3484       H  0.71279990  0.59180608  0.96277999     0.10100
H3485       H  0.75319123  0.53131452  0.91536536     0.08100
Br3486     Br  0.80452703  0.57679473  0.93993546    -0.02500
C3487       C  0.69500766  0.65303951  0.04722840    -0.09100
C3488       C  0.70211140  0.65658646  0.07234596     0.07100
C3489       C  0.73101850  0.66112353  0.07906630    -0.02900
C3490       C  0.75157411  0.66112036  0.06098444    -0.07300
C3491       C  0.74443189  0.65730886  0.03586121     0.06200
C3492       C  0.71573624  0.65351797  0.02906240    -0.02300
Br3493     Br  0.70239017  0.64679599  0.99554771    -0.02000
H3494       H  0.67283857  0.64884474  0.04172984     0.10100
H3495       H  0.77351032  0.66460892  0.06661538     0.08100
Br3496     Br  0.74430827  0.66853440  0.11261728    -0.02500
C3497       C  0.92312877  0.68787163  0.94141739    -0.09100
C3498       C  0.92403735  0.67957973  0.96590970     0.07100
C3499       C  0.94686431  0.67112189  0.97220268    -0.02900
C3500       C  0.96586738  0.66849431  0.95387785    -0.07300
C3501       C  0.96369132  0.67509994  0.92925989     0.06200
C3502       C  0.94284312  0.68603236  0.92329002    -0.02300
Br3503     Br  0.94083483  0.69940471  0.89070639    -0.02000
H3504       H  0.90672619  0.69539956  0.93617015     0.10100
H3505       H  0.98208103  0.66057159  0.95883013     0.08100
Br3506     Br  0.95472033  0.66357205  0.00534394    -0.02500
C3507       C  0.84087528  0.55990584  0.03465353    -0.09100
C3508       C  0.82245188  0.57356937  0.04169110     0.07100
C3509       C  0.80096733  0.56109500  0.06055529    -0.02900
C3510       C  0.80016015  0.53698461  0.07336228    -0.07300
C3511       C  0.82105706  0.52577941  0.06822964     0.06200
C3512       C  0.84063939  0.53646966  0.04802077    -0.02300
Br3513     Br  0.87018231  0.02262701  0.04021142    -0.02000
H3514       H  0.85721289  0.56898461  0.01997183     0.10100
H3515       H  0.78548265  0.52918806  0.08929211     0.08100
Br3516     Br  0.77608243  0.57896550  0.07296291    -0.02500
C3517       C  0.92873660  0.78003125  0.04358295    -0.09100
C3518       C  0.92831234  0.75210946  0.04573264     0.07100
C3519       C  0.95174986  0.74976885  0.05864860    -0.02900
C3520       C  0.97277524  0.77414990  0.07073307    -0.07300
C3521       C  0.97209923  0.80149229  0.06968601     0.06200
C3522       C  0.95046221  0.80456004  0.05518073    -0.02300
Br3523     Br  0.94996452  0.84183705  0.05016803    -0.02000
H3524       H  0.91184824  0.78282315  0.03318554     0.10100
H3525       H  0.98929867  0.77148598  0.08173949     0.08100
Br3526     Br  0.95781027  0.71465148  0.06052376    -0.02500
C3527       C  0.81185012  0.78229932  0.93124606    -0.09100
C3528       C  0.83869537  0.80604488  0.92603020     0.07100
C3529       C  0.86473787  0.80696597  0.93664063    -0.02900
C3530       C  0.86364180  0.78376906  0.95123215    -0.07300
C3531       C  0.83675429  0.75951170  0.95605555     0.06200
C3532       C  0.81048084  0.75939060  0.94614860    -0.02300
Br3533     Br  0.77154099  0.72837366  0.95066787    -0.02000
H3534       H  0.79179737  0.78104043  0.92296359     0.10100
H3535       H  0.88390794  0.78482640  0.95892596     0.08100
Br3536     Br  0.90230332  0.83994053  0.93237855    -0.02500
loop_ 
_geom_bond_atom_site_label_1 
_geom_bond_atom_site_label_2 
_geom_bond_distance 
_geom_bond_site_symmetry_2 
_ccdc_geom_bond_type 
O1           Ni7   1.929       .  S
O1           C22   1.270       .  A
O2          Ni25   1.945       .  S
O2           C11   1.280       .  A
O3           Ni7   1.892       .  S
O3          Ni25   1.913   1_554  S
O3          Ni19   1.912       .  S
O3           H26   0.976       .  S
C4           O21   1.277       .  A
C4           O13   1.281       .  A
C4          C826   1.475       .  S
O5          Ni24   1.912       .  S
O5           C11   1.264       .  A
O6          Ni24   1.903       .  S
O6            C8   1.264   1_556  A
Ni7          O10   1.916       .  S
Ni7          O12   1.893       .  S
C8           O18   1.275       .  A
C8          C839   1.492       .  S
O9          Ni25   1.940   1_554  S
O9           C15   1.286       .  A
O10          C15   1.275       .  A
C11         C879   1.497       .  S
O12          C14   1.264   1_554  A
O13         Ni24   1.930       .  S
C14          O20   1.281       .  A
C14         C846   1.496       .  S
C15         C866   1.496       .  S
H16          O17   0.961       .  S
O17         Ni25   1.928       .  S
O17         Ni19   1.888   1_556  S
O17         Ni24   1.892       .  S
O18         Ni19   1.943       .  S
Ni19         O23   1.897       .  S
Ni19         O21   1.923   1_554  S
O20         Ni25   1.953       .  S
C22          O23   1.263       .  A
C22         C856   1.472       .  S
O27         Ni33   1.928       .  S
O27          C48   1.272       .  A
O28         Ni51   1.912       .  S
O28          C37   1.268       .  A
O29         Ni33   1.894       .  S
O29         Ni51   1.900       .  S
O29         Ni45   1.924       .  S
O29          H52   0.966       .  S
C30          O47   1.286       .  A
C30          O39   1.267       .  A
C30         C789   1.495       .  S
O31         Ni50   1.921       .  S
O31          C37   1.269       .  A
O32         Ni50   1.894       .  S
O32          C34   1.266       .  A
Ni33         O36   1.931       .  S
Ni33         O38   1.926       .  S
C34          O44   1.271       .  A
C34         C776   1.482       .  S
O35         Ni51   1.930       .  S
O35          C41   1.276       .  A
O36          C41   1.278       .  A
C37         C766   1.477       .  S
O38          C40   1.272       .  A
O39         Ni50   1.913       .  S
C40          O46   1.274       .  A
C40         C816   1.492       .  S
C41         C796   1.479       .  S
H42          O43   0.963       .  S
O43         Ni51   1.912       .  S
O43         Ni45   1.922       .  S
O43         Ni50   1.895       .  S
O44         Ni45   1.945       .  S
Ni45         O49   1.932       .  S
Ni45         O47   1.944       .  S
O46         Ni51   1.929       .  S
C48          O49   1.278       .  A
C48         C806   1.499       .  S
N53          C58   1.351       .  A
N53         C941   1.348   1_545  A
N53          H85   1.043       .  S
N54          C61   1.350       .  A
N54          C62   1.349       .  A
N55          C60   1.351       .  A
N55         C943   1.349   1_545  A
N55          H86   1.042       .  S
N56          C63   1.348       .  A
N56          C64   1.349       .  A
C57         N937   1.348       .  A
C57          C65   1.385       .  A
C57          C73   1.407       .  A
C58          C74   1.415       .  A
C58          C66   1.388       .  A
C59         N939   1.349       .  A
C59          C67   1.385       .  A
C59          C76   1.408       .  A
C60          C75   1.416       .  A
C60          C68   1.389       .  A
C61          C73   1.411       .  A
C61          C69   1.386       .  A
C62          C76   1.413       .  A
C62          C70   1.387       .  A
C63          C71   1.388       .  A
C63          C74   1.415       .  A
C64          C72   1.387       .  A
C64          C75   1.413       .  A
C65         C950   1.382       .  A
C65          H77   1.082       .  S
C66         C949   1.382   1_545  A
C66          H78   1.082       .  S
C67         C952   1.379       .  A
C67          H79   1.082       .  S
C68         C951   1.379   1_545  A
C68          H80   1.082       .  S
C69          C70   1.381       .  A
C69          H81   1.082       .  S
C70          H82   1.082       .  S
C71          C72   1.381       .  A
C71          H83   1.082       .  S
C72          H84   1.082       .  S
C73         C759   1.485       .  S
C74         C746   1.501       .  S
C75         C726   1.499       .  S
C76         C736   1.484       .  S
N87          C92   1.355       .  A
N87          C91   1.352       .  A
N87         H119   1.038       .  S
N88          C95   1.352       .  A
N88          C96   1.351       .  A
N89          C94   1.355       .  A
N89          C93   1.353       .  A
N89         H120   1.039       .  S
N90          C97   1.344       .  A
N90          C98   1.344       .  A
C91          C99   1.386       .  A
C91         C107   1.417       .  A
C92         C108   1.421       .  A
C92         C100   1.388       .  A
C93         C101   1.386       .  A
C93         C110   1.415       .  A
C94         C109   1.420       .  A
C94         C102   1.388       .  A
C95         C107   1.413       .  A
C95         C103   1.387       .  A
C96         C110   1.413       .  A
C96         C104   1.387       .  A
C97         C105   1.386       .  A
C97         C108   1.403       .  A
C98         C106   1.386       .  A
C98         C109   1.404       .  A
C99         C100   1.368       .  A
C99         H111   1.079       .  S
C100        H112   1.081       .  S
C101        C102   1.368       .  A
C101        H113   1.080       .  S
C102        H114   1.081       .  S
C103        C104   1.367       .  A
C103        H115   1.082       .  S
C104        H116   1.082       .  S
C105        C106   1.374       .  A
C105        H117   1.082       .  S
C106        H118   1.082       .  S
C107        C719   1.485       .  S
C108        C706   1.488       .  S
C109        C696   1.487       .  S
C110        C686   1.484       .  S
N121        C125   1.353       .  A
N121       C1894   1.353   1_455  A
N121        H153   1.042       .  S
N122        C129   1.353       .  A
N122        C130   1.351       .  A
N123        C127   1.352       .  A
N123       C1896   1.356   1_455  A
N123        H154   1.042       .  S
N124        C131   1.348       .  A
N124        C132   1.350       .  A
C125        C133   1.386       .  A
C125        C141   1.414       .  A
C126       N1889   1.353       .  A
C126        C142   1.419       .  A
C126        C134   1.388       .  A
C127        C135   1.389       .  A
C127        C144   1.416       .  A
C128       N1891   1.356       .  A
C128        C143   1.418       .  A
C128        C136   1.386       .  A
C129        C141   1.415       .  A
C129        C137   1.385       .  A
C130        C144   1.416       .  A
C130        C138   1.387       .  A
C131        C139   1.387       .  A
C131        C142   1.413       .  A
C132        C140   1.385       .  A
C132        C143   1.411       .  A
C133       C1902   1.378   1_455  A
C133        H145   1.081       .  S
C134       C1901   1.378       .  A
C134        H146   1.082       .  S
C135       C1904   1.372   1_455  A
C135        H147   1.080       .  S
C136       C1903   1.372       .  A
C136        H148   1.081       .  S
C137        C138   1.376       .  A
C137        H149   1.082       .  S
C138        H150   1.081       .  S
C139        C140   1.377       .  A
C139        H151   1.082       .  S
C140        H152   1.082       .  S
C141        C656   1.493       .  S
C142        C646   1.498       .  S
C143        C676   1.503       .  S
C144        C666   1.486       .  S
C155        C639   1.488       .  S
C155        C160   1.405       .  A
C155       C1924   1.416   1_455  A
C156        C769   1.478       .  S
C156        C157   1.406       .  A
C156       C1923   1.416       .  A
C157        C158   1.398       .  A
C157        H162   1.085       .  S
C158        C749   1.479       .  S
C158       C1927   1.412       .  A
C159        C716   1.484       .  S
C159        C160   1.400       .  A
C159       C1926   1.412   1_455  A
C160        H161   1.085       .  S
C163        C786   1.475       .  S
C163        C168   1.396       .  A
C163       C1048   1.411   1_545  A
C164        C626   1.484       .  S
C164        C165   1.404       .  A
C164       C1047   1.411       .  A
C165        C166   1.407       .  A
C165        H170   1.084       .  S
C166        C669   1.488       .  S
C166       C1051   1.423       .  A
C167        C709   1.492       .  S
C167        C168   1.395       .  A
C167       C1050   1.423   1_545  A
C168        H169   1.084       .  S
C171        C876   1.492       .  S
C171        C172   1.419       .  A
C171        C176   1.402       .  A
C172        C616   1.483       .  S
C172        C173   1.405       .  A
C173        C174   1.402       .  A
C173        H178   1.085       .  S
C174        C739   1.490       .  S
C174        C175   1.420       .  A
C175        C649   1.490       .  S
C175        C176   1.404       .  A
C176        H177   1.085       .  S
C179        C819   1.498       .  S
C179        C180   1.419       .  A
C179        C184   1.411       .  A
C180        C609   1.487       .  S
C180        C181   1.402       .  A
C181        C182   1.403       .  A
C181        H186   1.085       .  S
C182        C756   1.490       .  S
C182        C183   1.425       .  A
C183        C679   1.503       .  S
C183        C184   1.412       .  A
C184        H185   1.083       .  S
C187        C596   1.484       .  S
C187        C192   1.409       .  A
C187       C1072   1.408       .  A
C188        C829   1.481       .  S
C188        C189   1.394       .  A
C188       C1071   1.408   1_545  A
C189        C190   1.402       .  A
C189        H194   1.085       .  S
C190        C699   1.486       .  S
C190       C1075   1.428   1_545  A
C191        C659   1.507       .  S
C191        C192   1.410       .  A
C191       C1074   1.428       .  A
C192        H193   1.083       .  S
C195        C586   1.493       .  S
C195        C200   1.405       .  A
C195       C1964   1.426   1_455  A
C196        C849   1.491       .  S
C196        C197   1.407       .  A
C196       C1963   1.426       .  A
C197        C198   1.398       .  A
C197        H202   1.085       .  S
C198        C729   1.479       .  S
C198       C1967   1.413       .  A
C199        C689   1.486       .  S
C199        C200   1.399       .  A
C199       C1966   1.413   1_455  A
C200        H201   1.084       .  S
O203       Ni209   1.926       .  S
O203        C224   1.267       .  A
O204       Ni227   1.933       .  S
O204        C213   1.278       .  A
O205       Ni209   1.895       .  S
O205       Ni227   1.910       .  S
O205       Ni221   1.915       .  S
O205        H228   0.967       .  S
C206        O223   1.277       .  A
C206        O215   1.280       .  A
C206        C636   1.477       .  S
O207       Ni226   1.915       .  S
O207        C213   1.269       .  A
O208       Ni226   1.906       .  S
O208        C210   1.266       .  A
Ni209       O212   1.910       .  S
Ni209       O214   1.891       .  S
C210        O220   1.272       .  A
C210        C556   1.478       .  S
O211       Ni227   1.952       .  S
O211        C217   1.286       .  A
O212        C217   1.277       .  A
C213        C606   1.484       .  S
O214        C216   1.266       .  A
O215       Ni226   1.927       .  S
C216        O222   1.276       .  A
C216        C629   1.483       .  S
C217        C579   1.505       .  S
H218        O219   0.965       .  S
O219       Ni227   1.931       .  S
O219       Ni221   1.891       .  S
O219       Ni226   1.897       .  S
O220       Ni221   1.933       .  S
Ni221       O225   1.901       .  S
Ni221       O223   1.925       .  S
O222       Ni227   1.940       .  S
C224        O225   1.264       .  A
C224        C566   1.471       .  S
O229       Ni235   1.920       .  S
O229        C250   1.270       .  A
O230       Ni253   1.925       .  S
O230        C239   1.270       .  A
O231       Ni235   1.898       .  S
O231       Ni253   1.901   1_554  S
O231       Ni247   1.923       .  S
O231        H254   0.966       .  S
C232        O249   1.285       .  A
C232        O241   1.274       .  A
C232        C589   1.486       .  S
O233       Ni252   1.923       .  S
O233        C239   1.269       .  A
O234       Ni252   1.893       .  S
O234        C236   1.268   1_556  A
Ni235       O238   1.924       .  S
Ni235       O240   1.900       .  S
C236        O246   1.277       .  A
C236        C539   1.495       .  S
O237       Ni253   1.922   1_554  S
O237        C243   1.277       .  A
O238        C243   1.278       .  A
C239        C599   1.494       .  S
O240        C242   1.266   1_554  A
O241       Ni252   1.906       .  S
C242        O248   1.276       .  A
C242        C619   1.479       .  S
C243        C549   1.471       .  S
H244        O245   0.965       .  S
O245       Ni253   1.915       .  S
O245       Ni247   1.913   1_556  S
O245       Ni252   1.892       .  S
O246       Ni247   1.946       .  S
Ni247       O251   1.941       .  S
Ni247       O249   1.946   1_554  S
O248       Ni253   1.942       .  S
C250        O251   1.280       .  A
C250        C526   1.496       .  S
N255        C260   1.350       .  A
N255       C2027   1.355       .  A
N255        H287   1.039       .  S
N256        C263   1.352       .  A
N256        C264   1.351       .  A
N257        C262   1.357       .  A
N257       C2029   1.358       .  A
N257        H288   1.038       .  S
N258        C265   1.356       .  A
N258        C266   1.356       .  A
C259       N2023   1.355   1_455  A
C259        C267   1.389       .  A
C259        C275   1.420       .  A
C260        C276   1.410       .  A
C260        C268   1.384       .  A
C261       N2025   1.358   1_455  A
C261        C269   1.383   1_455  A
C261        C278   1.423       .  A
C262        C277   1.428       .  A
C262        C270   1.391       .  A
C263        C275   1.415       .  A
C263        C271   1.384       .  A
C264        C278   1.413       .  A
C264        C272   1.384       .  A
C265        C273   1.385       .  A
C265        C276   1.420       .  A
C266        C274   1.386       .  A
C266        C277   1.424       .  A
C267       C2036   1.376   1_455  A
C267        H279   1.082       .  S
C268       C2035   1.376       .  A
C268        H280   1.083       .  S
C269       C2038   1.369       .  A
C269        H281   1.082   1_655  S
C270       C2037   1.369       .  A
C270        H282   1.075       .  S
C271        C272   1.376       .  A
C271        H283   1.080       .  S
C272        H284   1.079       .  S
C273        C274   1.371       .  A
C273        H285   1.081       .  S
C274        H286   1.082       .  S
C275        C516   1.503       .  S
C276        C496   1.496       .  S
C277        C489   1.510       .  S
C278        C506   1.506       .  S
N289        C294   1.349       .  A
N289        C293   1.350       .  A
N289        H321   1.043       .  S
N290        C297   1.343       .  A
N290        C298   1.342       .  A
N291        C296   1.345       .  A
N291        C295   1.348       .  A
N291        H322   1.044       .  S
N292        C299   1.346       .  A
N292        C300   1.350       .  A
C293        C301   1.387       .  A
C293        C309   1.415       .  A
C294        C310   1.410       .  A
C294        C302   1.387       .  A
C295        C303   1.390       .  A
C295        C312   1.412       .  A
C296        C311   1.405       .  A
C296        C304   1.385       .  A
C297        C309   1.407       .  A
C297        C305   1.387       .  A
C298        C312   1.406       .  A
C298        C306   1.387       .  A
C299        C307   1.390       .  A
C299        C310   1.415       .  A
C300        C308   1.383       .  A
C300        C311   1.410       .  A
C301        C302   1.376       .  A
C301        H313   1.081       .  S
C302        H314   1.081       .  S
C303        C304   1.379       .  A
C303        H315   1.082       .  S
C304        H316   1.082       .  S
C305        C306   1.381       .  A
C305        H317   1.082       .  S
C306        H318   1.082       .  S
C307        C308   1.378       .  A
C307        H319   1.080       .  S
C308        H320   1.082       .  S
C309        C449   1.489       .  S
C310        C466   1.479       .  S
C311        C479   1.492       .  S
C312        C459   1.486       .  S
C323        C779   1.477       .  S
C323        C328   1.404       .  A
C323       C1208   1.412   1_545  A
C324        C576   1.493       .  S
C324        C325   1.393       .  A
C324       C1207   1.412       .  A
C325        C326   1.401       .  A
C325        H330   1.085       .  S
C326        C469   1.478       .  S
C326       C1211   1.431       .  A
C327        C486   1.514       .  S
C327        C328   1.405       .  A
C327       C1210   1.431   1_545  A
C328        H329   1.081       .  S
N331        C336   1.354       .  A
N331       C1219   1.352       .  A
N331        H363   1.040       .  S
N332        C339   1.349       .  A
N332        C340   1.353       .  A
N333        C338   1.348       .  A
N333       C1221   1.352       .  A
N333        H364   1.041       .  S
N334        C341   1.351       .  A
N334        C342   1.351       .  A
C335       N1215   1.352   1_545  A
C335        C343   1.388       .  A
C335        C351   1.416       .  A
C336        C352   1.415       .  A
C336        C344   1.386       .  A
C337       N1217   1.352   1_545  A
C337        C345   1.388       .  A
C337        C354   1.415       .  A
C338        C353   1.404       .  A
C338        C346   1.384       .  A
C339        C351   1.412       .  A
C339        C347   1.385       .  A
C340        C354   1.416       .  A
C340        C348   1.385       .  A
C341        C349   1.386       .  A
C341        C352   1.413       .  A
C342        C350   1.383       .  A
C342        C353   1.411       .  A
C343       C1228   1.378   1_545  A
C343        H355   1.082       .  S
C344       C1227   1.378       .  A
C344        H356   1.082       .  S
C345       C1230   1.376   1_545  A
C345        H357   1.082       .  S
C346       C1229   1.376       .  A
C346        H358   1.082       .  S
C347        C348   1.374       .  A
C347        H359   1.080       .  S
C348        H360   1.081       .  S
C349        C350   1.374       .  A
C349        H361   1.082       .  S
C350        H362   1.081       .  S
C351        C426   1.487       .  S
C352        C406   1.491       .  S
C353        C419   1.483       .  S
C354        C436   1.502       .  S
C365        C546   1.479       .  S
C365        C370   1.399       .  A
C365       C1250   1.403       .  A
C366        C859   1.468       .  S
C366        C367   1.402       .  A
C366       C1249   1.403   1_545  A
C367        C368   1.400       .  A
C367        H372   1.085       .  S
C368        C499   1.495       .  S
C368       C1253   1.428   1_545  A
C369        C476   1.492       .  S
C369        C370   1.406       .  A
C369       C1252   1.428       .  A
C370        H371   1.083       .  S
C373        C559   1.483       .  S
C373        C374   1.420       .  A
C373        C378   1.409       .  A
C374        C809   1.495       .  S
C374        C375   1.405       .  A
C375        C376   1.403       .  A
C375        H380   1.084       .  S
C376        C429   1.480       .  S
C376        C377   1.413       .  A
C377        C509   1.489       .  S
C377        C378   1.403       .  A
C378        H379   1.084       .  S
C381        C529   1.496       .  S
C381        C382   1.429       .  A
C381        C386   1.409       .  A
C382        C836   1.496       .  S
C382        C383   1.409       .  A
C383        C384   1.398       .  A
C383        H388   1.084       .  S
C384        C439   1.481       .  S
C384        C385   1.410       .  A
C385        C519   1.484       .  S
C385        C386   1.403       .  A
C386        H387   1.085       .  S
C389        C569   1.471       .  S
C389        C394   1.403       .  A
C389       C2158   1.411   1_455  A
C390        C799   1.491       .  S
C390        C391   1.402       .  A
C390       C2157   1.411       .  A
C391        C392   1.406       .  A
C391        H396   1.084       .  S
C392        C446   1.487       .  S
C392       C2161   1.421       .  A
C393        C409   1.490       .  S
C393        C394   1.401       .  A
C393       C2160   1.421   1_455  A
C394        H395   1.085       .  S
C397        C869   1.486       .  S
C397        C402   1.401       .  A
C397       C2166   1.414       .  A
C398        C536   1.477       .  S
C398        C399   1.400       .  A
C398       C2165   1.414   1_455  A
C399        C400   1.401       .  A
C399        H404   1.085       .  S
C400        C416   1.491       .  S
C400       C2169   1.425   1_455  A
C401        C456   1.494       .  S
C401        C402   1.406       .  A
C401       C2168   1.425       .  A
C402        H403   1.084       .  S
C405        C406   1.404       .  A
C405        C410   1.400       .  A
C405        H412   1.084       .  S
C406        C407   1.409       .  A
C407        C408   1.400       .  A
C407       Br414   1.918       .  S
C408        C409   1.406       .  A
C408        H413   1.084       .  S
C409        C410   1.410       .  A
C410      Br2179   1.917   1_455  S
Br411      C2178   1.917       .  S
C415        C416   1.404       .  A
C415        C420   1.397       .  A
C415       H2190   1.083       .  S
C416        C417   1.418       .  A
C417        C418   1.399       .  A
C417       Br424   1.921       .  S
C418        C419   1.398       .  A
C418        H423   1.083       .  S
C419        C420   1.410       .  A
C420      Br2189   1.921       .  S
Br421      C2188   1.921       .  S
H422       C2183   1.083       .  S
C425        C426   1.406       .  A
C425        C430   1.400       .  A
C425        H432   1.083       .  S
C426        C427   1.409       .  A
C427        C428   1.392       .  A
C427       Br434   1.920       .  S
C428        C429   1.399       .  A
C428        H433   1.077       .  S
C429        C430   1.408       .  A
C430       Br431   1.918       .  S
C435        C436   1.409       .  A
C435        C440   1.395       .  A
C435        H442   1.083       .  S
C436        C437   1.415       .  A
C437        C438   1.404       .  A
C437       Br444   1.921       .  S
C438        C439   1.403       .  A
C438        H443   1.083       .  S
C439        C440   1.402       .  A
C440       Br441   1.916       .  S
C445        C446   1.406       .  A
C445        C450   1.392       .  A
C445        H452   1.083       .  S
C446        C447   1.410       .  A
C447        C448   1.397       .  A
C447       Br454   1.917       .  S
C448        C449   1.407       .  A
C448        H453   1.083       .  S
C449        C450   1.410       .  A
C450       Br451   1.923       .  S
C455        C456   1.406       .  A
C455        C460   1.395       .  A
C455       H2230   1.082       .  S
C456        C457   1.416       .  A
C457        C458   1.394       .  A
C457       Br464   1.918       .  S
C458        C459   1.401       .  A
C458        H463   1.083       .  S
C459        C460   1.409       .  A
C460       Br461   1.918       .  S
H462       C2223   1.082   1_455  S
C465        C466   1.398       .  A
C465        C470   1.389       .  A
C465        H472   1.084       .  S
C466        C467   1.412       .  A
C467        C468   1.398       .  A
C467       Br474   1.921       .  S
C468        C469   1.403       .  A
C468        H473   1.083       .  S
C469        C470   1.414       .  A
C470       Br471   1.925       .  S
C475        C476   1.403       .  A
C475        C480   1.394       .  A
C475       H1366   1.082       .  S
C476        C477   1.417       .  A
C477        C478   1.394       .  A
C477       Br484   1.920       .  S
C478        C479   1.404       .  A
C478        H483   1.084       .  S
C479        C480   1.407       .  A
C480       Br481   1.899       .  S
H482       C1359   1.082   1_545  S
C485        C486   1.406       .  A
C485        C490   1.398       .  A
C485       H1376   1.081       .  S
C486        C487   1.425       .  A
C487        C488   1.405       .  A
C487       Br494   1.924       .  S
C488        C489   1.403       .  A
C488        H493   1.082       .  S
C489        C490   1.412       .  A
C490       Br491   1.910       .  S
H492       C1369   1.081       .  S
C495        C496   1.407       .  A
C495        C500   1.400       .  A
C495        H502   1.084       .  S
C496        C497   1.408       .  A
C497        C498   1.404       .  A
C497       Br504   1.919       .  S
C498        C499   1.410       .  A
C498        H503   1.083       .  S
C499        C500   1.409       .  A
C500       Br501   1.919       .  S
C505        C506   1.408       .  A
C505        C510   1.399       .  A
C505        H512   1.083       .  S
C506        C507   1.417       .  A
C507        C508   1.405       .  A
C507       Br514   1.920       .  S
C508        C509   1.403       .  A
C508        H513   1.083       .  S
C509        C510   1.408       .  A
C510       Br511   1.919       .  S
C515        C516   1.408       .  A
C515        C520   1.399       .  A
C515        H522   1.083       .  S
C516        C517   1.416       .  A
C517        C518   1.403       .  A
C517       Br524   1.919       .  S
C518        C519   1.401       .  A
C518        H523   1.083       .  S
C519        C520   1.406       .  A
C520       Br521   1.916       .  S
C525        C526   1.410       .  A
C525        C530   1.401       .  A
C525        H532   1.083       .  S
C526        C527   1.411       .  A
C527        C528   1.410       .  A
C527       Br534   1.919       .  S
C528        C529   1.411       .  A
C528        H533   1.083       .  S
C529        C530   1.407       .  A
C530       Br531   1.918       .  S
C535        C536   1.404       .  A
C535        C540   1.404       .  A
C535        H542   1.084       .  S
C536        C537   1.400       .  A
C537        C538   1.394       .  A
C537       Br544   1.919       .  S
C538        C539   1.414       .  A
C538        H543   1.083       .  S
C539        C540   1.417       .  A
C540       Br541   1.920       .  S
C545        C546   1.403       .  A
C545        C550   1.403       .  A
C545        H552   1.083       .  S
C546        C547   1.410       .  A
C547        C548   1.396       .  A
C547       Br554   1.918       .  S
C548        C549   1.400       .  A
C548        H553   1.084       .  S
C549        C550   1.410       .  A
C550       Br551   1.918       .  S
C555        C556   1.405       .  A
C555        C560   1.399       .  A
C555        H562   1.084       .  S
C556        C557   1.408       .  A
C557        C558   1.402       .  A
C557       Br564   1.917       .  S
C558        C559   1.405       .  A
C558        H563   1.083       .  S
C559        C560   1.407       .  A
C560       Br561   1.917       .  S
C565        C566   1.402       .  A
C565        C570   1.396       .  A
C565        H572   1.084       .  S
C566        C567   1.411       .  A
C567        C568   1.396       .  A
C567       Br574   1.921       .  S
C568        C569   1.401       .  A
C568        H573   1.083       .  S
C569        C570   1.406       .  A
C570       Br571   1.918       .  S
C575        C576   1.410       .  A
C575        C580   1.409       .  A
C575        H582   1.083       .  S
C576        C577   1.407       .  A
C577        C578   1.395       .  A
C577       Br584   1.922       .  S
C578        C579   1.414       .  A
C578        H583   1.083       .  S
C579        C580   1.416       .  A
C580       Br581   1.919       .  S
C585        C586   1.399       .  A
C585        C590   1.396       .  A
C585        H592   1.083       .  S
C586        C587   1.419       .  A
C587        C588   1.404       .  A
C587       Br594   1.921       .  S
C588        C589   1.402       .  A
C588        H593   1.083       .  S
C589        C590   1.419       .  A
C590       Br591   1.924       .  S
C595        C596   1.404       .  A
C595        C600   1.404       .  A
C595        H602   1.083       .  S
C596        C597   1.406       .  A
C597        C598   1.398       .  A
C597       Br604   1.920       .  S
C598        C599   1.411       .  A
C598        H603   1.083       .  S
C599        C600   1.415       .  A
C600       Br601   1.920       .  S
C605        C606   1.403       .  A
C605        C610   1.404       .  A
C605        H612   1.083       .  S
C606        C607   1.417       .  A
C607        C608   1.397       .  A
C607       Br614   1.922       .  S
C608        C609   1.399       .  A
C608        H613   1.084       .  S
C609        C610   1.415       .  A
C610       Br611   1.918       .  S
C615        C616   1.406       .  A
C615        C620   1.400       .  A
C615        H622   1.084       .  S
C616        C617   1.407       .  A
C617        C618   1.401       .  A
C617       Br624   1.917       .  S
C618        C619   1.407       .  A
C618        H623   1.084       .  S
C619        C620   1.407       .  A
C620       Br621   1.917       .  S
C625        C626   1.406       .  A
C625        C630   1.402       .  A
C625        H632   1.082       .  S
C626        C627   1.408       .  A
C627        C628   1.396       .  A
C627      Br1518   1.919       .  S
C628        C629   1.408       .  A
C628        H633   1.084       .  S
C629        C630   1.411       .  A
C630       Br631   1.920       .  S
Br634      C1511   1.919       .  S
C635        C636   1.400       .  A
C635        C640   1.396       .  A
C635        H642   1.084       .  S
C636        C637   1.412       .  A
C637        C638   1.404       .  A
C637       Br644   1.918       .  S
C638        C639   1.405       .  A
C638        H643   1.083       .  S
C639        C640   1.414       .  A
C640       Br641   1.923       .  S
C645        C646   1.409       .  A
C645        C650   1.398       .  A
C645        H652   1.083       .  S
C646        C647   1.413       .  A
C647        C648   1.395       .  A
C647       Br654   1.922       .  S
C648        C649   1.405       .  A
C648        H653   1.083       .  S
C649        C650   1.409       .  A
C650       Br651   1.917       .  S
C655        C656   1.401       .  A
C655        C660   1.402       .  A
C655        H662   1.084       .  S
C656        C657   1.407       .  A
C657        C658   1.404       .  A
C657       Br664   1.918       .  S
C658        C659   1.411       .  A
C658        H663   1.082       .  S
C659        C660   1.420       .  A
C660       Br661   1.922       .  S
C665        C666   1.402       .  A
C665        C670   1.398       .  A
C665        H672   1.084       .  S
C666        C667   1.409       .  A
C667        C668   1.398       .  A
C667      Br1558   1.921       .  S
C668        C669   1.406       .  A
C668       H1557   1.083       .  S
C669        C670   1.413       .  A
C670       Br671   1.922       .  S
H673       C1552   1.083   1_545  S
Br674      C1551   1.921       .  S
C675        C676   1.406       .  A
C675        C680   1.399       .  A
C675        H682   1.083       .  S
C676        C677   1.413       .  A
C677        C678   1.401       .  A
C677       Br684   1.922       .  S
C678        C679   1.409       .  A
C678        H683   1.083       .  S
C679        C680   1.414       .  A
C680       Br681   1.917       .  S
C685        C686   1.404       .  A
C685        C690   1.397       .  A
C685        H692   1.084       .  S
C686        C687   1.406       .  A
C687        C688   1.392       .  A
C687       Br694   1.922       .  S
C688        C689   1.403       .  A
C688       H2461   1.074       .  S
C689        C690   1.410       .  A
C690       Br691   1.920       .  S
H693       C2456   1.074       .  S
C695        C696   1.407       .  A
C695        C700   1.397       .  A
C695        H702   1.083       .  S
C696        C697   1.406       .  A
C697        C698   1.393       .  A
C697       Br704   1.922       .  S
C698        C699   1.409       .  A
C698        H703   1.083       .  S
C699        C700   1.408       .  A
C700       Br701   1.918   1_545  S
C705        C706   1.400       .  A
C705        C710   1.394       .  A
C705        H712   1.084       .  S
C706        C707   1.412       .  A
C707        C708   1.395       .  A
C707       Br714   1.921       .  S
C708        C709   1.405       .  A
C708        H713   1.083       .  S
C709        C710   1.418       .  A
C710       Br711   1.923       .  S
C715        C716   1.404       .  A
C715        C720   1.393       .  A
C715        H722   1.078       .  S
C716        C717   1.409       .  A
C717        C718   1.397       .  A
C717       Br724   1.921       .  S
C718        C719   1.405       .  A
C718        H723   1.084       .  S
C719        C720   1.407       .  A
C720       Br721   1.923       .  S
C725        C726   1.409       .  A
C725        C730   1.393       .  A
C725        H732   1.083       .  S
C726        C727   1.416       .  A
C727        C728   1.403       .  A
C727       Br734   1.921       .  S
C728        C729   1.402       .  A
C728        H733   1.083       .  S
C729        C730   1.403       .  A
C730      Br2499   1.922       .  S
Br731      C2498   1.922       .  S
C735        C736   1.400       .  A
C735        C740   1.400       .  A
C735        H742   1.083       .  S
C736        C737   1.410       .  A
C737        C738   1.399       .  A
C737       Br744   1.920       .  S
C738        C739   1.404       .  A
C738        H743   1.083       .  S
C739        C740   1.415       .  A
C740       Br741   1.921       .  S
C745        C746   1.411       .  A
C745        C750   1.398       .  A
C745        H752   1.083       .  S
C746        C747   1.420       .  A
C747        C748   1.397       .  A
C747       Br754   1.925       .  S
C748        C749   1.398       .  A
C748        H753   1.084       .  S
C749        C750   1.403       .  A
C750       Br751   1.917       .  S
C755        C756   1.408       .  A
C755        C760   1.399       .  A
C755        H762   1.084       .  S
C756        C757   1.409       .  A
C757        C758   1.401       .  A
C757       Br764   1.919       .  S
C758        C759   1.405       .  A
C758        H763   1.083       .  S
C759        C760   1.405       .  A
C760       Br761   1.916       .  S
C765        C766   1.406       .  A
C765        C770   1.396       .  A
C765        H772   1.084       .  S
C766        C767   1.410       .  A
C767        C768   1.402       .  A
C767       Br774   1.919       .  S
C768        C769   1.406       .  A
C768        H773   1.084       .  S
C769        C770   1.405       .  A
C770      Br2539   1.918       .  S
Br771      C2538   1.918       .  S
C775        C776   1.405       .  A
C775        C780   1.389       .  A
C775        H782   1.083       .  S
C776        C777   1.415       .  A
C777        C778   1.403       .  A
C777       Br784   1.921       .  S
C778        C779   1.406       .  A
C778        H783   1.083       .  S
C779        C780   1.407       .  A
C780      Br1665   1.922       .  S
Br781      C1664   1.922       .  S
C785        C786   1.391       .  A
C785        C790   1.392       .  A
C785        H792   1.083       .  S
C786        C787   1.410       .  A
C787        C788   1.406       .  A
C787       Br794   1.918       .  S
C788        C789   1.406       .  A
C788        H793   1.083       .  S
C789        C790   1.431       .  A
C790       Br791   1.930       .  S
C795        C796   1.404       .  A
C795        C800   1.402       .  A
C795        H802   1.083       .  S
C796        C797   1.407       .  A
C797        C798   1.402       .  A
C797       Br804   1.917       .  S
C798        C799   1.406       .  A
C798        H803   1.079       .  S
C799        C800   1.411       .  A
C800       Br801   1.920       .  S
C805        C806   1.408       .  A
C805        C810   1.405       .  A
C805        H812   1.083       .  S
C806        C807   1.422       .  A
C807        C808   1.402       .  A
C807       Br814   1.923       .  S
C808        C809   1.401       .  A
C808        H813   1.083       .  S
C809        C810   1.412       .  A
C810       Br811   1.920       .  S
C815        C816   1.405       .  A
C815        C820   1.402       .  A
C815        H822   1.084       .  S
C816        C817   1.416       .  A
C817        C818   1.406       .  A
C817       Br824   1.920       .  S
C818        C819   1.406       .  A
C818        H823   1.083       .  S
C819        C820   1.413       .  A
C820       Br821   1.919       .  S
C825        C826   1.400       .  A
C825        C830   1.398       .  A
C825        H832   1.084       .  S
C826        C827   1.410       .  A
C827        C828   1.404       .  A
C827       Br834   1.918       .  S
C828        C829   1.404       .  A
C828        H833   1.083       .  S
C829        C830   1.411       .  A
C830       Br831   1.919       .  S
C835        C836   1.402       .  A
C835        C840   1.404       .  A
C835        H842   1.083       .  S
C836        C837   1.418       .  A
C837        C838   1.401       .  A
C837       Br844   1.923       .  S
C838        C839   1.403       .  A
C838        H843   1.083       .  S
C839        C840   1.419       .  A
C840       Br841   1.922   1_554  S
C845        C846   1.405       .  A
C845        C850   1.403       .  A
C845        H852   1.083       .  S
C846        C847   1.425       .  A
C847        C848   1.399       .  A
C847       Br854   1.924   1_556  S
C848        C849   1.398       .  A
C848        H853   1.084       .  S
C849        C850   1.414       .  A
C850       Br851   1.920       .  S
C855        C856   1.405       .  A
C855        C860   1.393       .  A
C855        H862   1.084       .  S
C856        C857   1.411       .  A
C857        C858   1.397       .  A
C857       Br864   1.921       .  S
C858        C859   1.401       .  A
C858        H863   1.084       .  S
C859        C860   1.404       .  A
C860      Br1745   1.916       .  S
Br861      C1744   1.916       .  S
C865        C866   1.406       .  A
C865        C870   1.403       .  A
C865        H872   1.083       .  S
C866        C867   1.425       .  A
C867        C868   1.397       .  A
C867       Br874   1.923       .  S
C868        C869   1.396       .  A
C868        H873   1.083       .  S
C869        C870   1.412       .  A
C870       Br871   1.915       .  S
C875        C876   1.396       .  A
C875        C880   1.399       .  A
C875        H882   1.083       .  S
C876        C877   1.416       .  A
C877        C878   1.405       .  A
C877       Br884   1.922       .  S
C878        C879   1.405       .  A
C878        H883   1.083       .  S
C879        C880   1.426       .  A
C880       Br881   1.926       .  S
O885       Ni891   1.929       .  S
O885        C906   1.270       .  A
O886       Ni909   1.945       .  S
O886        C895   1.280       .  A
O887       Ni891   1.892       .  S
O887       Ni909   1.913   1_554  S
O887       Ni903   1.912       .  S
O887        H910   0.976       .  S
C888        O905   1.277       .  A
C888        O897   1.281       .  A
C888       C1710   1.475       .  S
O889       Ni908   1.912       .  S
O889        C895   1.264       .  A
O890       Ni908   1.903       .  S
O890        C892   1.264   1_556  A
Ni891       O894   1.916       .  S
Ni891       O896   1.893       .  S
C892        O902   1.275       .  A
C892       C1723   1.492       .  S
O893       Ni909   1.940   1_554  S
O893        C899   1.286       .  A
O894        C899   1.275       .  A
C895       C1763   1.497       .  S
O896        C898   1.264   1_554  A
O897       Ni908   1.931       .  S
C898        O904   1.281       .  A
C898       C1730   1.497       .  S
C899       C1750   1.496       .  S
H900        O901   0.961       .  S
O901       Ni909   1.928       .  S
O901       Ni903   1.888   1_556  S
O901       Ni908   1.892       .  S
O902       Ni903   1.943       .  S
Ni903       O907   1.897       .  S
Ni903       O905   1.923   1_554  S
O904       Ni909   1.953       .  S
C906        O907   1.263       .  A
C906       C1740   1.472       .  S
O911       Ni917   1.928       .  S
O911        C932   1.272       .  A
O912       Ni935   1.912       .  S
O912        C921   1.268       .  A
O913       Ni917   1.894       .  S
O913       Ni935   1.900       .  S
O913       Ni929   1.924       .  S
O913        H936   0.966       .  S
C914        O931   1.286       .  A
C914        O923   1.267       .  A
C914       C1673   1.495       .  S
O915       Ni934   1.921       .  S
O915        C921   1.269       .  A
O916       Ni934   1.894       .  S
O916        C918   1.266       .  A
Ni917       O920   1.931       .  S
Ni917       O922   1.926       .  S
C918        O928   1.271       .  A
C918       C1660   1.482       .  S
O919       Ni935   1.929       .  S
O919        C925   1.276       .  A
O920        C925   1.278       .  A
C921       C1650   1.477       .  S
O922        C924   1.272       .  A
O923       Ni934   1.913       .  S
C924        O930   1.274       .  A
C924       C1700   1.492       .  S
C925       C1680   1.479       .  S
H926        O927   0.963       .  S
O927       Ni935   1.912       .  S
O927       Ni929   1.922       .  S
O927       Ni934   1.895       .  S
O928       Ni929   1.945       .  S
Ni929       O933   1.932       .  S
Ni929       O931   1.944       .  S
O930       Ni935   1.929       .  S
C932        O933   1.278       .  A
C932       C1690   1.499       .  S
N937        C942   1.351       .  A
N937        H969   1.043       .  S
N938        C945   1.350       .  A
N938        C946   1.349       .  A
N939        C944   1.351       .  A
N939        H970   1.042       .  S
N940        C947   1.348       .  A
N940        C948   1.349       .  A
C941        C949   1.385       .  A
C941        C957   1.407       .  A
C942        C958   1.415       .  A
C942        C950   1.388       .  A
C943        C951   1.385       .  A
C943        C960   1.408       .  A
C944        C959   1.416       .  A
C944        C952   1.389       .  A
C945        C957   1.411       .  A
C945        C953   1.386       .  A
C946        C960   1.413       .  A
C946        C954   1.387       .  A
C947        C955   1.388       .  A
C947        C958   1.415       .  A
C948        C956   1.387       .  A
C948        C959   1.413       .  A
C949        H961   1.082       .  S
C950        H962   1.082       .  S
C951        H963   1.082       .  S
C952        H964   1.082       .  S
C953        C954   1.381       .  A
C953        H965   1.082       .  S
C954        H966   1.082       .  S
C955        C956   1.381       .  A
C955        H967   1.082       .  S
C956        H968   1.082       .  S
C957       C1643   1.485       .  S
C958       C1630   1.501       .  S
C959       C1610   1.499       .  S
C960       C1620   1.484       .  S
N971        C976   1.355       .  A
N971        C975   1.352       .  A
N971       H1003   1.038       .  S
N972        C979   1.352       .  A
N972        C980   1.351       .  A
N973        C978   1.355       .  A
N973        C977   1.353       .  A
N973       H1004   1.039       .  S
N974        C981   1.344       .  A
N974        C982   1.344       .  A
C975        C983   1.386       .  A
C975        C991   1.417       .  A
C976        C992   1.421       .  A
C976        C984   1.388       .  A
C977        C985   1.386       .  A
C977        C994   1.415       .  A
C978        C993   1.420       .  A
C978        C986   1.388       .  A
C979        C991   1.413       .  A
C979        C987   1.387       .  A
C980        C994   1.413       .  A
C980        C988   1.387       .  A
C981        C989   1.386       .  A
C981        C992   1.403       .  A
C982        C990   1.386       .  A
C982        C993   1.404       .  A
C983        C984   1.368       .  A
C983        H995   1.079       .  S
C984        H996   1.081       .  S
C985        C986   1.368       .  A
C985        H997   1.080       .  S
C986        H998   1.081       .  S
C987        C988   1.367       .  A
C987        H999   1.082       .  S
C988       H1000   1.082       .  S
C989        C990   1.374       .  A
C989       H1001   1.082       .  S
C990       H1002   1.082       .  S
C991       C1603   1.485       .  S
C992       C1590   1.488       .  S
C993       C1580   1.487       .  S
C994       C1570   1.484       .  S
N1005      C2778   1.353   1_455  A
N1005      C1009   1.353       .  A
N1005      H1037   1.042       .  S
N1006      C1013   1.353       .  A
N1006      C1014   1.351       .  A
N1007      C2780   1.356   1_455  A
N1007      C1011   1.352       .  A
N1007      H1038   1.042       .  S
N1008      C1015   1.348       .  A
N1008      C1016   1.350       .  A
C1009      C1017   1.386       .  A
C1009      C1025   1.414       .  A
C1010      N2773   1.353       .  A
C1010      C1026   1.419       .  A
C1010      C1018   1.388       .  A
C1011      C1019   1.389       .  A
C1011      C1028   1.416       .  A
C1012      N2775   1.356       .  A
C1012      C1027   1.418       .  A
C1012      C1020   1.386       .  A
C1013      C1025   1.415       .  A
C1013      C1021   1.385       .  A
C1014      C1028   1.416       .  A
C1014      C1022   1.387       .  A
C1015      C1023   1.387       .  A
C1015      C1026   1.413       .  A
C1016      C1024   1.385       .  A
C1016      C1027   1.411       .  A
C1017      C2786   1.378   1_455  A
C1017      H1029   1.081       .  S
C1018      C2785   1.378       .  A
C1018      H1030   1.082       .  S
C1019      C2788   1.372   1_455  A
C1019      H1031   1.080       .  S
C1020      C2787   1.372       .  A
C1020      H1032   1.081       .  S
C1021      C1022   1.376       .  A
C1021      H1033   1.082       .  S
C1022      H1034   1.081       .  S
C1023      C1024   1.377       .  A
C1023      H1035   1.082       .  S
C1024      H1036   1.082       .  S
C1025      C1540   1.493       .  S
C1026      C1530   1.498       .  S
C1027      C1560   1.503       .  S
C1028      C1550   1.486       .  S
C1039      C1523   1.488       .  S
C1039      C2808   1.416   1_455  A
C1039      C1044   1.405       .  A
C1040      C1653   1.478       .  S
C1040      C2807   1.416       .  A
C1040      C1041   1.406       .  A
C1041      C1042   1.398       .  A
C1041      H1046   1.085       .  S
C1042      C1633   1.478       .  S
C1042      C2811   1.412       .  A
C1043      C1600   1.484       .  S
C1043      C2810   1.412   1_455  A
C1043      C1044   1.400       .  A
C1044      H1045   1.085       .  S
C1047      C1670   1.475       .  S
C1047      C1052   1.396       .  A
C1048      C1510   1.484       .  S
C1048      C1049   1.404       .  A
C1049      C1050   1.407       .  A
C1049      H1054   1.084       .  S
C1050      C1553   1.488       .  S
C1051      C1593   1.492       .  S
C1051      C1052   1.395       .  A
C1052      H1053   1.084       .  S
C1055      C1760   1.492       .  S
C1055      C1056   1.419       .  A
C1055      C1060   1.402       .  A
C1056      C1500   1.483       .  S
C1056      C1057   1.405       .  A
C1057      C1058   1.402       .  A
C1057      H1062   1.085       .  S
C1058      C1623   1.490       .  S
C1058      C1059   1.420       .  A
C1059      C1533   1.490       .  S
C1059      C1060   1.404       .  A
C1060      H1061   1.085       .  S
C1063      C1703   1.498       .  S
C1063      C1064   1.419       .  A
C1063      C1068   1.411       .  A
C1064      C1493   1.487       .  S
C1064      C1065   1.402       .  A
C1065      C1066   1.403       .  A
C1065      H1070   1.085       .  S
C1066      C1640   1.490       .  S
C1066      C1067   1.425       .  A
C1067      C1563   1.503       .  S
C1067      C1068   1.412       .  A
C1068      H1069   1.083       .  S
C1071      C1480   1.484       .  S
C1071      C1076   1.409       .  A
C1072      C1713   1.481       .  S
C1072      C1073   1.394       .  A
C1073      C1074   1.402       .  A
C1073      H1078   1.085       .  S
C1074      C1583   1.486       .  S
C1075      C1543   1.507       .  S
C1075      C1076   1.410       .  A
C1076      H1077   1.083       .  S
C1079      C1470   1.493       .  S
C1079      C2848   1.426   1_455  A
C1079      C1084   1.405       .  A
C1080      C1733   1.491       .  S
C1080      C2847   1.426       .  A
C1080      C1081   1.407       .  A
C1081      C1082   1.398       .  A
C1081      H1086   1.085       .  S
C1082      C1613   1.479       .  S
C1082      C2851   1.413       .  A
C1083      C1573   1.486       .  S
C1083      C2850   1.413   1_455  A
C1083      C1084   1.399       .  A
C1084      H1085   1.084       .  S
O1087     Ni1093   1.926       .  S
O1087      C1108   1.267       .  A
O1088     Ni1111   1.933       .  S
O1088      C1097   1.278       .  A
O1089     Ni1093   1.895       .  S
O1089     Ni1111   1.910       .  S
O1089     Ni1105   1.915       .  S
O1089      H1112   0.967       .  S
C1090      O1107   1.277       .  A
C1090      O1099   1.280       .  A
C1090      C1520   1.477       .  S
O1091     Ni1110   1.915       .  S
O1091      C1097   1.269       .  A
O1092     Ni1110   1.906       .  S
O1092      C1094   1.266       .  A
Ni1093     O1096   1.910       .  S
Ni1093     O1098   1.891       .  S
C1094      O1104   1.272       .  A
C1094      C1440   1.478       .  S
O1095     Ni1111   1.952       .  S
O1095      C1101   1.286       .  A
O1096      C1101   1.277       .  A
C1097      C1490   1.484       .  S
O1098      C1100   1.266       .  A
O1099     Ni1110   1.926       .  S
C1100      O1106   1.276       .  A
C1100      C1513   1.483       .  S
C1101      C1463   1.505       .  S
H1102      O1103   0.965       .  S
O1103     Ni1111   1.931       .  S
O1103     Ni1105   1.891       .  S
O1103     Ni1110   1.897       .  S
O1104     Ni1105   1.933       .  S
Ni1105     O1109   1.901       .  S
Ni1105     O1107   1.925       .  S
O1106     Ni1111   1.940       .  S
C1108      O1109   1.264       .  A
C1108      C1450   1.471       .  S
O1113     Ni1119   1.920       .  S
O1113      C1134   1.270       .  A
O1114     Ni1137   1.924       .  S
O1114      C1123   1.270       .  A
O1115     Ni1119   1.898       .  S
O1115     Ni1137   1.901   1_554  S
O1115     Ni1131   1.923       .  S
O1115      H1138   0.966       .  S
C1116      O1133   1.285       .  A
C1116      O1125   1.274       .  A
C1116      C1473   1.486       .  S
O1117     Ni1136   1.923       .  S
O1117      C1123   1.269       .  A
O1118     Ni1136   1.893       .  S
O1118      C1120   1.268   1_556  A
Ni1119     O1122   1.924       .  S
Ni1119     O1124   1.900       .  S
C1120      O1130   1.277       .  A
C1120      C1423   1.495       .  S
O1121     Ni1137   1.922   1_554  S
O1121      C1127   1.277       .  A
O1122      C1127   1.278       .  A
C1123      C1483   1.494       .  S
O1124      C1126   1.266   1_554  A
O1125     Ni1136   1.906       .  S
C1126      O1132   1.276       .  A
C1126      C1503   1.479       .  S
C1127      C1433   1.471       .  S
H1128      O1129   0.965       .  S
O1129     Ni1137   1.915       .  S
O1129     Ni1131   1.913   1_556  S
O1129     Ni1136   1.892       .  S
O1130     Ni1131   1.946       .  S
Ni1131     O1135   1.941       .  S
Ni1131     O1133   1.946   1_554  S
O1132     Ni1137   1.942       .  S
C1134      O1135   1.280       .  A
C1134      C1410   1.496       .  S
N1139      C1144   1.350       .  A
N1139      C2911   1.355       .  A
N1139      H1171   1.039       .  S
N1140      C1147   1.352       .  A
N1140      C1148   1.351       .  A
N1141      C1146   1.357       .  A
N1141      C2913   1.358       .  A
N1141      H1172   1.038       .  S
N1142      C1149   1.356       .  A
N1142      C1150   1.356       .  A
C1143      N2907   1.355   1_455  A
C1143      C1151   1.389       .  A
C1143      C1159   1.420       .  A
C1144      C1160   1.410       .  A
C1144      C1152   1.384       .  A
C1145      N2909   1.358   1_455  A
C1145      C1153   1.383   1_455  A
C1145      C1162   1.423       .  A
C1146      C1161   1.428       .  A
C1146      C1154   1.391       .  A
C1147      C1159   1.415       .  A
C1147      C1155   1.384       .  A
C1148      C1162   1.413       .  A
C1148      C1156   1.384       .  A
C1149      C1157   1.385       .  A
C1149      C1160   1.420       .  A
C1150      C1158   1.386       .  A
C1150      C1161   1.424       .  A
C1151      C2920   1.376   1_455  A
C1151      H1163   1.082       .  S
C1152      C2919   1.376       .  A
C1152      H1164   1.083       .  S
C1153      C2922   1.369       .  A
C1153      H1165   1.082   1_655  S
C1154      C2921   1.369       .  A
C1154      H1166   1.075       .  S
C1155      C1156   1.376       .  A
C1155      H1167   1.080       .  S
C1156      H1168   1.079       .  S
C1157      C1158   1.371       .  A
C1157      H1169   1.081       .  S
C1158      H1170   1.082       .  S
C1159      C1400   1.503       .  S
C1160      C1380   1.496       .  S
C1161      C1373   1.510       .  S
C1162      C1390   1.506       .  S
N1173      C1178   1.349       .  A
N1173      C1177   1.350       .  A
N1173      H1205   1.043       .  S
N1174      C1181   1.343       .  A
N1174      C1182   1.342       .  A
N1175      C1180   1.345       .  A
N1175      C1179   1.348       .  A
N1175      H1206   1.044       .  S
N1176      C1183   1.346       .  A
N1176      C1184   1.350       .  A
C1177      C1185   1.387       .  A
C1177      C1193   1.415       .  A
C1178      C1194   1.410       .  A
C1178      C1186   1.387       .  A
C1179      C1187   1.390       .  A
C1179      C1196   1.412       .  A
C1180      C1195   1.405       .  A
C1180      C1188   1.385       .  A
C1181      C1193   1.407       .  A
C1181      C1189   1.387       .  A
C1182      C1196   1.406       .  A
C1182      C1190   1.387       .  A
C1183      C1191   1.390       .  A
C1183      C1194   1.415       .  A
C1184      C1192   1.383       .  A
C1184      C1195   1.410       .  A
C1185      C1186   1.376       .  A
C1185      H1197   1.081       .  S
C1186      H1198   1.081       .  S
C1187      C1188   1.379       .  A
C1187      H1199   1.082       .  S
C1188      H1200   1.082       .  S
C1189      C1190   1.381       .  A
C1189      H1201   1.082       .  S
C1190      H1202   1.082       .  S
C1191      C1192   1.378       .  A
C1191      H1203   1.080       .  S
C1192      H1204   1.082       .  S
C1193      C1333   1.489       .  S
C1194      C1350   1.479       .  S
C1195      C1363   1.492       .  S
C1196      C1343   1.486       .  S
C1207      C1663   1.477       .  S
C1207      C1212   1.404       .  A
C1208      C1460   1.493       .  S
C1208      C1209   1.393       .  A
C1209      C1210   1.401       .  A
C1209      H1214   1.085       .  S
C1210      C1353   1.478       .  S
C1211      C1370   1.514       .  S
C1211      C1212   1.405       .  A
C1212      H1213   1.081       .  S
N1215      C1220   1.354       .  A
N1215      H1247   1.040       .  S
N1216      C1223   1.349       .  A
N1216      C1224   1.353       .  A
N1217      C1222   1.348       .  A
N1217      H1248   1.041       .  S
N1218      C1225   1.351       .  A
N1218      C1226   1.351       .  A
C1219      C1227   1.388       .  A
C1219      C1235   1.416       .  A
C1220      C1236   1.415       .  A
C1220      C1228   1.386       .  A
C1221      C1229   1.388       .  A
C1221      C1238   1.415       .  A
C1222      C1237   1.404       .  A
C1222      C1230   1.384       .  A
C1223      C1235   1.412       .  A
C1223      C1231   1.385       .  A
C1224      C1238   1.416       .  A
C1224      C1232   1.385       .  A
C1225      C1233   1.386       .  A
C1225      C1236   1.413       .  A
C1226      C1234   1.383       .  A
C1226      C1237   1.411       .  A
C1227      H1239   1.082       .  S
C1228      H1240   1.082       .  S
C1229      H1241   1.082       .  S
C1230      H1242   1.082       .  S
C1231      C1232   1.374       .  A
C1231      H1243   1.080       .  S
C1232      H1244   1.081       .  S
C1233      C1234   1.374       .  A
C1233      H1245   1.082       .  S
C1234      H1246   1.081       .  S
C1235      C1310   1.487       .  S
C1236      C1290   1.491       .  S
C1237      C1303   1.483       .  S
C1238      C1320   1.502       .  S
C1249      C1430   1.479       .  S
C1249      C1254   1.399       .  A
C1250      C1743   1.468       .  S
C1250      C1251   1.402       .  A
C1251      C1252   1.400       .  A
C1251      H1256   1.085       .  S
C1252      C1383   1.495       .  S
C1253      C1360   1.492       .  S
C1253      C1254   1.406       .  A
C1254      H1255   1.083       .  S
C1257      C1443   1.483       .  S
C1257      C1258   1.420       .  A
C1257      C1262   1.409       .  A
C1258      C1693   1.495       .  S
C1258      C1259   1.405       .  A
C1259      C1260   1.403       .  A
C1259      H1264   1.084       .  S
C1260      C1313   1.480       .  S
C1260      C1261   1.413       .  A
C1261      C1393   1.489       .  S
C1261      C1262   1.403       .  A
C1262      H1263   1.084       .  S
C1265      C1413   1.496       .  S
C1265      C1266   1.429       .  A
C1265      C1270   1.409       .  A
C1266      C1720   1.496       .  S
C1266      C1267   1.409       .  A
C1267      C1268   1.398       .  A
C1267      H1272   1.084       .  S
C1268      C1323   1.481       .  S
C1268      C1269   1.410       .  A
C1269      C1403   1.484       .  S
C1269      C1270   1.403       .  A
C1270      H1271   1.085       .  S
C1273      C1453   1.471       .  S
C1273      C3042   1.411   1_455  A
C1273      C1278   1.403       .  A
C1274      C1683   1.491       .  S
C1274      C3041   1.411       .  A
C1274      C1275   1.402       .  A
C1275      C1276   1.406       .  A
C1275      H1280   1.084       .  S
C1276      C1330   1.487       .  S
C1276      C3045   1.421       .  A
C1277      C1293   1.490       .  S
C1277      C3044   1.421   1_455  A
C1277      C1278   1.401       .  A
C1278      H1279   1.085       .  S
C1281      C1753   1.486       .  S
C1281      C3050   1.414       .  A
C1281      C1286   1.401       .  A
C1282      C1420   1.477       .  S
C1282      C3049   1.414   1_455  A
C1282      C1283   1.400       .  A
C1283      C1284   1.401       .  A
C1283      H1288   1.085       .  S
C1284      C1300   1.491       .  S
C1284      C3053   1.425   1_455  A
C1285      C1340   1.494       .  S
C1285      C3052   1.425       .  A
C1285      C1286   1.406       .  A
C1286      H1287   1.084       .  S
C1289      C1290   1.404       .  A
C1289      C1294   1.400       .  A
C1289      H1296   1.084       .  S
C1290      C1291   1.409       .  A
C1291      C1292   1.400       .  A
C1291     Br1298   1.918       .  S
C1292      C1293   1.406       .  A
C1292      H1297   1.084       .  S
C1293      C1294   1.410       .  A
C1294     Br3063   1.917   1_455  S
Br1295     C3062   1.917       .  S
C1299      C1300   1.404       .  A
C1299      C1304   1.397       .  A
C1299      H3074   1.083       .  S
C1300      C1301   1.418       .  A
C1301      C1302   1.399       .  A
C1301     Br1308   1.921       .  S
C1302      C1303   1.398       .  A
C1302      H1307   1.083       .  S
C1303      C1304   1.410       .  A
C1304     Br3073   1.921       .  S
Br1305     C3072   1.921       .  S
H1306      C3067   1.083       .  S
C1309      C1310   1.406       .  A
C1309      C1314   1.400       .  A
C1309      H1316   1.083       .  S
C1310      C1311   1.409       .  A
C1311      C1312   1.392       .  A
C1311     Br1318   1.920       .  S
C1312      C1313   1.399       .  A
C1312      H1317   1.077       .  S
C1313      C1314   1.408       .  A
C1314     Br1315   1.918       .  S
C1319      C1320   1.409       .  A
C1319      C1324   1.395       .  A
C1319      H1326   1.083       .  S
C1320      C1321   1.415       .  A
C1321      C1322   1.404       .  A
C1321     Br1328   1.921       .  S
C1322      C1323   1.403       .  A
C1322      H1327   1.083       .  S
C1323      C1324   1.402       .  A
C1324     Br1325   1.916       .  S
C1329      C1330   1.406       .  A
C1329      C1334   1.392       .  A
C1329      H1336   1.083       .  S
C1330      C1331   1.410       .  A
C1331      C1332   1.397       .  A
C1331     Br1338   1.917       .  S
C1332      C1333   1.407       .  A
C1332      H1337   1.083       .  S
C1333      C1334   1.410       .  A
C1334     Br1335   1.923       .  S
C1339      C1340   1.406       .  A
C1339      C1344   1.395       .  A
C1339      H3114   1.082       .  S
C1340      C1341   1.416       .  A
C1341      C1342   1.394       .  A
C1341     Br1348   1.918       .  S
C1342      C1343   1.401       .  A
C1342      H1347   1.083       .  S
C1343      C1344   1.409       .  A
C1344     Br1345   1.918       .  S
H1346      C3107   1.082   1_455  S
C1349      C1350   1.398       .  A
C1349      C1354   1.389       .  A
C1349      H1356   1.084       .  S
C1350      C1351   1.412       .  A
C1351      C1352   1.398       .  A
C1351     Br1358   1.921       .  S
C1352      C1353   1.403       .  A
C1352      H1357   1.083   1_565  S
C1353      C1354   1.414       .  A
C1354     Br1355   1.925       .  S
C1359      C1360   1.403       .  A
C1359      C1364   1.394       .  A
C1360      C1361   1.417       .  A
C1361      C1362   1.394       .  A
C1361     Br1368   1.920       .  S
C1362      C1363   1.404       .  A
C1362      H1367   1.084       .  S
C1363      C1364   1.407       .  A
C1364     Br1365   1.899   1_565  S
C1369      C1370   1.406       .  A
C1369      C1374   1.398       .  A
C1370      C1371   1.425       .  A
C1371      C1372   1.405       .  A
C1371     Br1378   1.924       .  S
C1372      C1373   1.403       .  A
C1372      H1377   1.082       .  S
C1373      C1374   1.412       .  A
C1374     Br1375   1.910       .  S
C1379      C1380   1.407       .  A
C1379      C1384   1.400       .  A
C1379      H1386   1.084       .  S
C1380      C1381   1.408       .  A
C1381      C1382   1.404       .  A
C1381     Br1388   1.919       .  S
C1382      C1383   1.410       .  A
C1382      H1387   1.083       .  S
C1383      C1384   1.409       .  A
C1384     Br1385   1.919       .  S
C1389      C1390   1.408       .  A
C1389      C1394   1.399       .  A
C1389      H1396   1.083       .  S
C1390      C1391   1.417       .  A
C1391      C1392   1.405       .  A
C1391     Br1398   1.920       .  S
C1392      C1393   1.403       .  A
C1392      H1397   1.083       .  S
C1393      C1394   1.408       .  A
C1394     Br1395   1.919       .  S
C1399      C1400   1.408       .  A
C1399      C1404   1.399       .  A
C1399      H1406   1.083       .  S
C1400      C1401   1.416       .  A
C1401      C1402   1.403       .  A
C1401     Br1408   1.919       .  S
C1402      C1403   1.401       .  A
C1402      H1407   1.083       .  S
C1403      C1404   1.406       .  A
C1404     Br1405   1.916       .  S
C1409      C1410   1.410       .  A
C1409      C1414   1.401       .  A
C1409      H1416   1.083       .  S
C1410      C1411   1.411       .  A
C1411      C1412   1.410       .  A
C1411     Br1418   1.919       .  S
C1412      C1413   1.411       .  A
C1412      H1417   1.083       .  S
C1413      C1414   1.407       .  A
C1414     Br1415   1.918       .  S
C1419      C1420   1.404       .  A
C1419      C1424   1.404       .  A
C1419      H1426   1.084       .  S
C1420      C1421   1.400       .  A
C1421      C1422   1.394       .  A
C1421     Br1428   1.919       .  S
C1422      C1423   1.414       .  A
C1422      H1427   1.083       .  S
C1423      C1424   1.417       .  A
C1424     Br1425   1.920       .  S
C1429      C1430   1.403       .  A
C1429      C1434   1.403       .  A
C1429      H1436   1.083       .  S
C1430      C1431   1.410       .  A
C1431      C1432   1.396       .  A
C1431     Br1438   1.918       .  S
C1432      C1433   1.400       .  A
C1432      H1437   1.084       .  S
C1433      C1434   1.410       .  A
C1434     Br1435   1.918       .  S
C1439      C1440   1.405       .  A
C1439      C1444   1.399       .  A
C1439      H1446   1.084       .  S
C1440      C1441   1.408       .  A
C1441      C1442   1.402       .  A
C1441     Br1448   1.917       .  S
C1442      C1443   1.405       .  A
C1442      H1447   1.083       .  S
C1443      C1444   1.407       .  A
C1444     Br1445   1.917       .  S
C1449      C1450   1.402       .  A
C1449      C1454   1.396       .  A
C1449      H1456   1.084       .  S
C1450      C1451   1.411       .  A
C1451      C1452   1.396       .  A
C1451     Br1458   1.921       .  S
C1452      C1453   1.401       .  A
C1452      H1457   1.083       .  S
C1453      C1454   1.406       .  A
C1454     Br1455   1.918       .  S
C1459      C1460   1.410       .  A
C1459      C1464   1.409       .  A
C1459      H1466   1.083       .  S
C1460      C1461   1.407       .  A
C1461      C1462   1.395       .  A
C1461     Br1468   1.922       .  S
C1462      C1463   1.414       .  A
C1462      H1467   1.083       .  S
C1463      C1464   1.416       .  A
C1464     Br1465   1.919       .  S
C1469      C1470   1.399       .  A
C1469      C1474   1.396       .  A
C1469      H1476   1.083       .  S
C1470      C1471   1.419       .  A
C1471      C1472   1.404       .  A
C1471     Br1478   1.921       .  S
C1472      C1473   1.402       .  A
C1472      H1477   1.083       .  S
C1473      C1474   1.419       .  A
C1474     Br1475   1.924       .  S
C1479      C1480   1.404       .  A
C1479      C1484   1.404       .  A
C1479      H1486   1.083       .  S
C1480      C1481   1.406       .  A
C1481      C1482   1.398       .  A
C1481     Br1488   1.920       .  S
C1482      C1483   1.411       .  A
C1482      H1487   1.083       .  S
C1483      C1484   1.415       .  A
C1484     Br1485   1.920       .  S
C1489      C1490   1.403       .  A
C1489      C1494   1.404       .  A
C1489      H1496   1.083       .  S
C1490      C1491   1.417       .  A
C1491      C1492   1.397       .  A
C1491     Br1498   1.922       .  S
C1492      C1493   1.399       .  A
C1492      H1497   1.084       .  S
C1493      C1494   1.415       .  A
C1494     Br1495   1.918       .  S
C1499      C1500   1.406       .  A
C1499      C1504   1.400       .  A
C1499      H1506   1.084       .  S
C1500      C1501   1.407       .  A
C1501      C1502   1.401       .  A
C1501     Br1508   1.917       .  S
C1502      C1503   1.407       .  A
C1502      H1507   1.084       .  S
C1503      C1504   1.407       .  A
C1504     Br1505   1.917       .  S
C1509      C1510   1.406       .  A
C1509      C1514   1.402       .  A
C1509      H1516   1.082       .  S
C1510      C1511   1.408       .  A
C1511      C1512   1.396       .  A
C1512      C1513   1.408       .  A
C1512      H1517   1.084       .  S
C1513      C1514   1.411       .  A
C1514     Br1515   1.920       .  S
C1519      C1520   1.400       .  A
C1519      C1524   1.396       .  A
C1519      H1526   1.084       .  S
C1520      C1521   1.412       .  A
C1521      C1522   1.404       .  A
C1521     Br1528   1.918       .  S
C1522      C1523   1.405       .  A
C1522      H1527   1.083       .  S
C1523      C1524   1.414       .  A
C1524     Br1525   1.923       .  S
C1529      C1530   1.409       .  A
C1529      C1534   1.398       .  A
C1529      H1536   1.083       .  S
C1530      C1531   1.413       .  A
C1531      C1532   1.395       .  A
C1531     Br1538   1.922       .  S
C1532      C1533   1.405       .  A
C1532      H1537   1.083       .  S
C1533      C1534   1.409       .  A
C1534     Br1535   1.917       .  S
C1539      C1540   1.401       .  A
C1539      C1544   1.402       .  A
C1539      H1546   1.084       .  S
C1540      C1541   1.407       .  A
C1541      C1542   1.404       .  A
C1541     Br1548   1.918   1_565  S
C1542      C1543   1.411       .  A
C1542      H1547   1.082   1_565  S
C1543      C1544   1.420       .  A
C1544     Br1545   1.922       .  S
C1549      C1550   1.402       .  A
C1549      C1554   1.398       .  A
C1549      H1556   1.084       .  S
C1550      C1551   1.409       .  A
C1551      C1552   1.398       .  A
C1552      C1553   1.406       .  A
C1553      C1554   1.413       .  A
C1554     Br1555   1.922       .  S
C1559      C1560   1.406       .  A
C1559      C1564   1.399       .  A
C1559      H1566   1.083       .  S
C1560      C1561   1.413       .  A
C1561      C1562   1.401       .  A
C1561     Br1568   1.922       .  S
C1562      C1563   1.409       .  A
C1562      H1567   1.083       .  S
C1563      C1564   1.414       .  A
C1564     Br1565   1.917       .  S
C1569      C1570   1.404       .  A
C1569      C1574   1.397       .  A
C1569      H1576   1.084       .  S
C1570      C1571   1.406       .  A
C1571      C1572   1.392       .  A
C1571     Br1578   1.922       .  S
C1572      C1573   1.403       .  A
C1572      H3345   1.074       .  S
C1573      C1574   1.410       .  A
C1574     Br1575   1.920       .  S
H1577      C3340   1.074       .  S
C1579      C1580   1.407       .  A
C1579      C1584   1.397       .  A
C1579      H1586   1.083       .  S
C1580      C1581   1.406       .  A
C1581      C1582   1.393       .  A
C1581     Br1588   1.922       .  S
C1582      C1583   1.409       .  A
C1582      H1587   1.083       .  S
C1583      C1584   1.408       .  A
C1584     Br1585   1.918       .  S
C1589      C1590   1.400       .  A
C1589      C1594   1.394       .  A
C1589      H1596   1.084       .  S
C1590      C1591   1.412       .  A
C1591      C1592   1.395       .  A
C1591     Br1598   1.921       .  S
C1592      C1593   1.405       .  A
C1592      H1597   1.083       .  S
C1593      C1594   1.418       .  A
C1594     Br1595   1.923       .  S
C1599      C1600   1.404       .  A
C1599      C1604   1.393       .  A
C1599      H1606   1.078       .  S
C1600      C1601   1.409       .  A
C1601      C1602   1.397       .  A
C1601     Br1608   1.921       .  S
C1602      C1603   1.405       .  A
C1602      H1607   1.084       .  S
C1603      C1604   1.407       .  A
C1604     Br1605   1.923       .  S
C1609      C1610   1.409       .  A
C1609      C1614   1.393       .  A
C1609      H1616   1.083       .  S
C1610      C1611   1.416       .  A
C1611      C1612   1.403       .  A
C1611     Br1618   1.921       .  S
C1612      C1613   1.402       .  A
C1612      H1617   1.083       .  S
C1613      C1614   1.403       .  A
C1614     Br3383   1.922       .  S
Br1615     C3382   1.922       .  S
C1619      C1620   1.400       .  A
C1619      C1624   1.400       .  A
C1619      H1626   1.083       .  S
C1620      C1621   1.410       .  A
C1621      C1622   1.399       .  A
C1621     Br1628   1.920       .  S
C1622      C1623   1.404       .  A
C1622      H1627   1.083       .  S
C1623      C1624   1.415       .  A
C1624     Br1625   1.921       .  S
C1629      C1630   1.411       .  A
C1629      C1634   1.398       .  A
C1629      H1636   1.083       .  S
C1630      C1631   1.420       .  A
C1631      C1632   1.397       .  A
C1631     Br1638   1.925       .  S
C1632      C1633   1.398       .  A
C1632      H1637   1.084       .  S
C1633      C1634   1.403       .  A
C1634     Br1635   1.917       .  S
C1639      C1640   1.408       .  A
C1639      C1644   1.399       .  A
C1639      H1646   1.084       .  S
C1640      C1641   1.409       .  A
C1641      C1642   1.401       .  A
C1641     Br1648   1.919       .  S
C1642      C1643   1.405       .  A
C1642      H1647   1.084       .  S
C1643      C1644   1.405       .  A
C1644     Br1645   1.916       .  S
C1649      C1650   1.406       .  A
C1649      C1654   1.396       .  A
C1649      H1656   1.084       .  S
C1650      C1651   1.410       .  A
C1651      C1652   1.402       .  A
C1651     Br1658   1.919       .  S
C1652      C1653   1.406       .  A
C1652      H1657   1.084       .  S
C1653      C1654   1.405       .  A
C1654     Br3423   1.918       .  S
Br1655     C3422   1.918       .  S
C1659      C1660   1.405       .  A
C1659      C1664   1.389       .  A
C1659      H1666   1.083       .  S
C1660      C1661   1.415       .  A
C1661      C1662   1.403       .  A
C1661     Br1668   1.921       .  S
C1662      C1663   1.406       .  A
C1662      H1667   1.083       .  S
C1663      C1664   1.407       .  A
C1669      C1670   1.391       .  A
C1669      C1674   1.392       .  A
C1669      H1676   1.083       .  S
C1670      C1671   1.410       .  A
C1671      C1672   1.406       .  A
C1671     Br1678   1.918       .  S
C1672      C1673   1.406       .  A
C1672      H1677   1.083       .  S
C1673      C1674   1.431       .  A
C1674     Br1675   1.930       .  S
C1679      C1680   1.404       .  A
C1679      C1684   1.402       .  A
C1679      H1686   1.083       .  S
C1680      C1681   1.407       .  A
C1681      C1682   1.402       .  A
C1681     Br1688   1.917       .  S
C1682      C1683   1.406       .  A
C1682      H1687   1.079       .  S
C1683      C1684   1.411       .  A
C1684     Br1685   1.920       .  S
C1689      C1690   1.408       .  A
C1689      C1694   1.405       .  A
C1689      H1696   1.083       .  S
C1690      C1691   1.422       .  A
C1691      C1692   1.402       .  A
C1691     Br1698   1.923       .  S
C1692      C1693   1.401       .  A
C1692      H1697   1.083       .  S
C1693      C1694   1.412       .  A
C1694     Br1695   1.920       .  S
C1699      C1700   1.405       .  A
C1699      C1704   1.402       .  A
C1699      H1706   1.084       .  S
C1700      C1701   1.416       .  A
C1701      C1702   1.406       .  A
C1701     Br1708   1.920       .  S
C1702      C1703   1.406       .  A
C1702      H1707   1.083       .  S
C1703      C1704   1.413       .  A
C1704     Br1705   1.919       .  S
C1709      C1710   1.400       .  A
C1709      C1714   1.398       .  A
C1709      H1716   1.084       .  S
C1710      C1711   1.410       .  A
C1711      C1712   1.404       .  A
C1711     Br1718   1.918       .  S
C1712      C1713   1.404       .  A
C1712      H1717   1.083       .  S
C1713      C1714   1.411       .  A
C1714     Br1715   1.919       .  S
C1719      C1720   1.402       .  A
C1719      C1724   1.404       .  A
C1719      H1726   1.083       .  S
C1720      C1721   1.418       .  A
C1721      C1722   1.401       .  A
C1721     Br1728   1.923       .  S
C1722      C1723   1.403       .  A
C1722      H1727   1.083       .  S
C1723      C1724   1.419       .  A
C1724     Br1725   1.922   1_554  S
C1729      C1730   1.405       .  A
C1729      C1734   1.403       .  A
C1729      H1736   1.083       .  S
C1730      C1731   1.425       .  A
C1731      C1732   1.399       .  A
C1731     Br1738   1.924   1_556  S
C1732      C1733   1.398       .  A
C1732      H1737   1.084       .  S
C1733      C1734   1.414       .  A
C1734     Br1735   1.920       .  S
C1739      C1740   1.405       .  A
C1739      C1744   1.393       .  A
C1739      H1746   1.084       .  S
C1740      C1741   1.411       .  A
C1741      C1742   1.397       .  A
C1741     Br1748   1.921       .  S
C1742      C1743   1.401       .  A
C1742      H1747   1.084       .  S
C1743      C1744   1.404       .  A
C1749      C1750   1.406       .  A
C1749      C1754   1.403       .  A
C1749      H1756   1.083       .  S
C1750      C1751   1.425       .  A
C1751      C1752   1.397       .  A
C1751     Br1758   1.923       .  S
C1752      C1753   1.396       .  A
C1752      H1757   1.083       .  S
C1753      C1754   1.412       .  A
C1754     Br1755   1.915       .  S
C1759      C1760   1.396       .  A
C1759      C1764   1.399       .  A
C1759      H1766   1.083       .  S
C1760      C1761   1.416       .  A
C1761      C1762   1.405       .  A
C1761     Br1768   1.922       .  S
C1762      C1763   1.405       .  A
C1762      H1767   1.083       .  S
C1763      C1764   1.426       .  A
C1764     Br1765   1.926       .  S
O1769     Ni1775   1.929       .  S
O1769      C1790   1.270       .  A
O1770     Ni1793   1.945       .  S
O1770      C1779   1.280       .  A
O1771     Ni1775   1.892       .  S
O1771     Ni1793   1.913   1_554  S
O1771     Ni1787   1.912       .  S
O1771      H1794   0.976       .  S
C1772      O1789   1.277       .  A
C1772      O1781   1.281       .  A
C1772      C2594   1.475       .  S
O1773     Ni1792   1.912       .  S
O1773      C1779   1.264       .  A
O1774     Ni1792   1.903       .  S
O1774      C1776   1.264   1_556  A
Ni1775     O1778   1.916       .  S
Ni1775     O1780   1.893       .  S
C1776      O1786   1.275       .  A
C1776      C2607   1.492       .  S
O1777     Ni1793   1.940   1_554  S
O1777      C1783   1.286       .  A
O1778      C1783   1.275       .  A
C1779      C2647   1.497       .  S
O1780      C1782   1.264   1_554  A
O1781     Ni1792   1.930       .  S
C1782      O1788   1.281       .  A
C1782      C2614   1.496       .  S
C1783      C2634   1.496       .  S
H1784      O1785   0.961       .  S
O1785     Ni1793   1.928       .  S
O1785     Ni1787   1.888   1_556  S
O1785     Ni1792   1.892       .  S
O1786     Ni1787   1.943       .  S
Ni1787     O1791   1.897       .  S
Ni1787     O1789   1.923   1_554  S
O1788     Ni1793   1.953       .  S
C1790      O1791   1.263       .  A
C1790      C2624   1.472       .  S
O1795     Ni1801   1.928       .  S
O1795      C1816   1.272       .  A
O1796     Ni1819   1.912       .  S
O1796      C1805   1.268       .  A
O1797     Ni1801   1.894       .  S
O1797     Ni1819   1.900       .  S
O1797     Ni1813   1.924       .  S
O1797      H1820   0.966       .  S
C1798      O1815   1.286       .  A
C1798      O1807   1.267       .  A
C1798      C2557   1.495       .  S
O1799     Ni1818   1.921       .  S
O1799      C1805   1.269       .  A
O1800     Ni1818   1.894       .  S
O1800      C1802   1.266       .  A
Ni1801     O1804   1.931       .  S
Ni1801     O1806   1.926       .  S
C1802      O1812   1.271       .  A
C1802      C2544   1.482       .  S
O1803     Ni1819   1.930       .  S
O1803      C1809   1.276       .  A
O1804      C1809   1.278       .  A
C1805      C2534   1.477       .  S
O1806      C1808   1.272       .  A
O1807     Ni1818   1.913       .  S
C1808      O1814   1.274       .  A
C1808      C2584   1.492       .  S
C1809      C2564   1.479       .  S
H1810      O1811   0.963       .  S
O1811     Ni1819   1.912       .  S
O1811     Ni1813   1.922       .  S
O1811     Ni1818   1.895       .  S
O1812     Ni1813   1.945       .  S
Ni1813     O1817   1.932       .  S
Ni1813     O1815   1.944       .  S
O1814     Ni1819   1.929       .  S
C1816      O1817   1.278       .  A
C1816      C2574   1.499       .  S
N1821      C1826   1.351       .  A
N1821      C2709   1.348   1_545  A
N1821      H1853   1.043       .  S
N1822      C1829   1.350       .  A
N1822      C1830   1.349       .  A
N1823      C1828   1.351       .  A
N1823      C2711   1.349   1_545  A
N1823      H1854   1.042       .  S
N1824      C1831   1.348       .  A
N1824      C1832   1.349       .  A
C1825      N2705   1.349       .  A
C1825      C1833   1.385       .  A
C1825      C1841   1.407       .  A
C1826      C1842   1.415       .  A
C1826      C1834   1.388       .  A
C1827      N2707   1.349       .  A
C1827      C1835   1.385       .  A
C1827      C1844   1.408       .  A
C1828      C1843   1.416       .  A
C1828      C1836   1.389       .  A
C1829      C1841   1.411       .  A
C1829      C1837   1.386       .  A
C1830      C1844   1.413       .  A
C1830      C1838   1.387       .  A
C1831      C1839   1.388       .  A
C1831      C1842   1.415       .  A
C1832      C1840   1.387       .  A
C1832      C1843   1.413       .  A
C1833      C2718   1.382       .  A
C1833      H1845   1.082       .  S
C1834      C2717   1.382   1_545  A
C1834      H1846   1.082       .  S
C1835      C2720   1.379       .  A
C1835      H1847   1.082       .  S
C1836      C2719   1.379   1_545  A
C1836      H1848   1.082       .  S
C1837      C1838   1.381       .  A
C1837      H1849   1.082       .  S
C1838      H1850   1.082       .  S
C1839      C1840   1.381       .  A
C1839      H1851   1.082       .  S
C1840      H1852   1.082       .  S
C1841      C2527   1.485       .  S
C1842      C2514   1.501       .  S
C1843      C2494   1.499       .  S
C1844      C2504   1.484       .  S
N1855      C1860   1.355       .  A
N1855      C1859   1.352       .  A
N1855      H1887   1.038       .  S
N1856      C1863   1.352       .  A
N1856      C1864   1.351       .  A
N1857      C1862   1.355       .  A
N1857      C1861   1.353       .  A
N1857      H1888   1.039       .  S
N1858      C1865   1.344       .  A
N1858      C1866   1.344       .  A
C1859      C1867   1.386       .  A
C1859      C1875   1.417       .  A
C1860      C1876   1.421       .  A
C1860      C1868   1.388       .  A
C1861      C1869   1.386       .  A
C1861      C1878   1.415       .  A
C1862      C1877   1.420       .  A
C1862      C1870   1.388       .  A
C1863      C1875   1.413       .  A
C1863      C1871   1.387       .  A
C1864      C1878   1.413       .  A
C1864      C1872   1.387       .  A
C1865      C1873   1.386       .  A
C1865      C1876   1.403       .  A
C1866      C1874   1.386       .  A
C1866      C1877   1.404       .  A
C1867      C1868   1.368       .  A
C1867      H1879   1.079       .  S
C1868      H1880   1.081       .  S
C1869      C1870   1.368       .  A
C1869      H1881   1.080       .  S
C1870      H1882   1.081       .  S
C1871      C1872   1.367       .  A
C1871      H1883   1.082       .  S
C1872      H1884   1.082       .  S
C1873      C1874   1.374       .  A
C1873      H1885   1.082       .  S
C1874      H1886   1.082       .  S
C1875      C2487   1.485       .  S
C1876      C2474   1.488       .  S
C1877      C2464   1.487       .  S
C1878      C2454   1.484       .  S
N1889      C1893   1.353       .  A
N1889      H1921   1.042       .  S
N1890      C1897   1.353       .  A
N1890      C1898   1.351       .  A
N1891      C1895   1.352       .  A
N1891      H1922   1.042       .  S
N1892      C1899   1.348       .  A
N1892      C1900   1.350       .  A
C1893      C1901   1.386       .  A
C1893      C1909   1.414       .  A
C1894      C1910   1.419       .  A
C1894      C1902   1.388       .  A
C1895      C1903   1.389       .  A
C1895      C1912   1.416       .  A
C1896      C1911   1.418       .  A
C1896      C1904   1.386       .  A
C1897      C1909   1.415       .  A
C1897      C1905   1.385       .  A
C1898      C1912   1.416       .  A
C1898      C1906   1.387       .  A
C1899      C1907   1.387       .  A
C1899      C1910   1.413       .  A
C1900      C1908   1.385       .  A
C1900      C1911   1.411       .  A
C1901      H1913   1.081       .  S
C1902      H1914   1.082       .  S
C1903      H1915   1.080       .  S
C1904      H1916   1.081       .  S
C1905      C1906   1.376       .  A
C1905      H1917   1.082       .  S
C1906      H1918   1.081       .  S
C1907      C1908   1.377       .  A
C1907      H1919   1.082       .  S
C1908      H1920   1.082       .  S
C1909      C2424   1.493       .  S
C1910      C2414   1.498       .  S
C1911      C2444   1.503       .  S
C1912      C2434   1.486       .  S
C1923      C2407   1.488       .  S
C1923      C1928   1.405       .  A
C1924      C2537   1.478       .  S
C1924      C1925   1.406       .  A
C1925      C1926   1.398       .  A
C1925      H1930   1.085       .  S
C1926      C2517   1.479       .  S
C1927      C2484   1.484       .  S
C1927      C1928   1.400       .  A
C1928      H1929   1.085       .  S
C1931      C2554   1.475       .  S
C1931      C2816   1.411   1_545  A
C1931      C1936   1.396       .  A
C1932      C2394   1.484       .  S
C1932      C2815   1.411       .  A
C1932      C1933   1.404       .  A
C1933      C1934   1.407       .  A
C1933      H1938   1.084       .  S
C1934      C2437   1.488       .  S
C1934      C2819   1.423       .  A
C1935      C2477   1.492       .  S
C1935      C2818   1.423   1_545  A
C1935      C1936   1.395       .  A
C1936      H1937   1.084       .  S
C1939      C2644   1.492       .  S
C1939      C1940   1.419       .  A
C1939      C1944   1.402       .  A
C1940      C2384   1.483       .  S
C1940      C1941   1.405       .  A
C1941      C1942   1.402       .  A
C1941      H1946   1.085       .  S
C1942      C2507   1.490       .  S
C1942      C1943   1.420       .  A
C1943      C2417   1.490       .  S
C1943      C1944   1.404       .  A
C1944      H1945   1.085       .  S
C1947      C2587   1.498       .  S
C1947      C1948   1.419       .  A
C1947      C1952   1.411       .  A
C1948      C2377   1.487       .  S
C1948      C1949   1.402       .  A
C1949      C1950   1.403       .  A
C1949      H1954   1.085       .  S
C1950      C2524   1.490       .  S
C1950      C1951   1.425       .  A
C1951      C2447   1.503       .  S
C1951      C1952   1.412       .  A
C1952      H1953   1.083       .  S
C1955      C2364   1.484       .  S
C1955      C2840   1.408       .  A
C1955      C1960   1.409       .  A
C1956      C2597   1.481       .  S
C1956      C2839   1.408   1_545  A
C1956      C1957   1.394       .  A
C1957      C1958   1.402       .  A
C1957      H1962   1.085       .  S
C1958      C2467   1.486       .  S
C1958      C2843   1.428   1_545  A
C1959      C2427   1.507       .  S
C1959      C2842   1.428       .  A
C1959      C1960   1.410       .  A
C1960      H1961   1.083       .  S
C1963      C2354   1.493       .  S
C1963      C1968   1.405       .  A
C1964      C2617   1.491       .  S
C1964      C1965   1.407       .  A
C1965      C1966   1.398       .  A
C1965      H1970   1.085       .  S
C1966      C2497   1.479       .  S
C1967      C2457   1.486       .  S
C1967      C1968   1.399       .  A
C1968      H1969   1.084       .  S
O1971     Ni1977   1.926       .  S
O1971      C1992   1.267       .  A
O1972     Ni1995   1.933       .  S
O1972      C1981   1.278       .  A
O1973     Ni1977   1.895       .  S
O1973     Ni1995   1.910       .  S
O1973     Ni1989   1.915       .  S
O1973      H1996   0.967       .  S
C1974      O1991   1.277       .  A
C1974      O1983   1.280       .  A
C1974      C2404   1.477       .  S
O1975     Ni1994   1.915       .  S
O1975      C1981   1.269       .  A
O1976     Ni1994   1.906       .  S
O1976      C1978   1.266       .  A
Ni1977     O1980   1.910       .  S
Ni1977     O1982   1.891       .  S
C1978      O1988   1.272       .  A
C1978      C2324   1.478       .  S
O1979     Ni1995   1.952       .  S
O1979      C1985   1.286       .  A
O1980      C1985   1.277       .  A
C1981      C2374   1.484       .  S
O1982      C1984   1.266       .  A
O1983     Ni1994   1.927       .  S
C1984      O1990   1.276       .  A
C1984      C2397   1.483       .  S
C1985      C2347   1.505       .  S
H1986      O1987   0.965       .  S
O1987     Ni1995   1.931       .  S
O1987     Ni1989   1.891       .  S
O1987     Ni1994   1.897       .  S
O1988     Ni1989   1.933       .  S
Ni1989     O1993   1.901       .  S
Ni1989     O1991   1.925       .  S
O1990     Ni1995   1.940       .  S
C1992      O1993   1.264       .  A
C1992      C2334   1.471       .  S
O1997     Ni2003   1.920       .  S
O1997      C2018   1.270       .  A
O1998     Ni2021   1.924       .  S
O1998      C2007   1.270       .  A
O1999     Ni2003   1.898       .  S
O1999     Ni2021   1.901   1_554  S
O1999     Ni2015   1.923       .  S
O1999      H2022   0.966       .  S
C2000      O2017   1.285       .  A
C2000      O2009   1.274       .  A
C2000      C2357   1.486       .  S
O2001     Ni2020   1.923       .  S
O2001      C2007   1.269       .  A
O2002     Ni2020   1.893       .  S
O2002      C2004   1.268   1_556  A
Ni2003     O2006   1.924       .  S
Ni2003     O2008   1.900       .  S
C2004      O2014   1.277       .  A
C2004      C2307   1.495       .  S
O2005     Ni2021   1.922   1_554  S
O2005      C2011   1.277       .  A
O2006      C2011   1.278       .  A
C2007      C2367   1.494       .  S
O2008      C2010   1.266   1_554  A
O2009     Ni2020   1.906       .  S
C2010      O2016   1.276       .  A
C2010      C2387   1.479       .  S
C2011      C2317   1.471       .  S
H2012      O2013   0.965       .  S
O2013     Ni2021   1.915       .  S
O2013     Ni2015   1.913   1_556  S
O2013     Ni2020   1.892       .  S
O2014     Ni2015   1.946       .  S
Ni2015     O2019   1.941       .  S
Ni2015     O2017   1.946   1_554  S
O2016     Ni2021   1.942       .  S
C2018      O2019   1.280       .  A
C2018      C2294   1.496       .  S
N2023      C2028   1.350       .  A
N2023      H2055   1.039       .  S
N2024      C2031   1.352       .  A
N2024      C2032   1.351       .  A
N2025      C2030   1.357       .  A
N2025      H2056   1.038       .  S
N2026      C2033   1.356       .  A
N2026      C2034   1.356       .  A
C2027      C2035   1.389       .  A
C2027      C2043   1.420       .  A
C2028      C2044   1.410       .  A
C2028      C2036   1.384       .  A
C2029      C2037   1.383       .  A
C2029      C2046   1.423       .  A
C2030      C2045   1.428       .  A
C2030      C2038   1.391       .  A
C2031      C2043   1.415       .  A
C2031      C2039   1.384       .  A
C2032      C2046   1.413       .  A
C2032      C2040   1.384       .  A
C2033      C2041   1.385       .  A
C2033      C2044   1.420       .  A
C2034      C2042   1.386       .  A
C2034      C2045   1.424       .  A
C2035      H2047   1.082       .  S
C2036      H2048   1.083       .  S
C2037      H2049   1.082       .  S
C2038      H2050   1.075       .  S
C2039      C2040   1.376       .  A
C2039      H2051   1.080       .  S
C2040      H2052   1.079       .  S
C2041      C2042   1.371       .  A
C2041      H2053   1.081       .  S
C2042      H2054   1.082       .  S
C2043      C2284   1.503       .  S
C2044      C2264   1.496       .  S
C2045      C2257   1.510       .  S
C2046      C2274   1.506       .  S
N2057      C2062   1.349       .  A
N2057      C2061   1.350       .  A
N2057      H2089   1.043       .  S
N2058      C2065   1.343       .  A
N2058      C2066   1.342       .  A
N2059      C2064   1.345       .  A
N2059      C2063   1.348       .  A
N2059      H2090   1.044       .  S
N2060      C2067   1.346       .  A
N2060      C2068   1.350       .  A
C2061      C2069   1.387       .  A
C2061      C2077   1.415       .  A
C2062      C2078   1.410       .  A
C2062      C2070   1.387       .  A
C2063      C2071   1.390       .  A
C2063      C2080   1.412       .  A
C2064      C2079   1.405       .  A
C2064      C2072   1.385       .  A
C2065      C2077   1.407       .  A
C2065      C2073   1.387       .  A
C2066      C2080   1.406       .  A
C2066      C2074   1.387       .  A
C2067      C2075   1.390       .  A
C2067      C2078   1.415       .  A
C2068      C2076   1.383       .  A
C2068      C2079   1.410       .  A
C2069      C2070   1.376       .  A
C2069      H2081   1.081       .  S
C2070      H2082   1.081       .  S
C2071      C2072   1.379       .  A
C2071      H2083   1.082       .  S
C2072      H2084   1.082       .  S
C2073      C2074   1.381       .  A
C2073      H2085   1.082       .  S
C2074      H2086   1.082       .  S
C2075      C2076   1.378       .  A
C2075      H2087   1.080       .  S
C2076      H2088   1.082       .  S
C2077      C2217   1.489       .  S
C2078      C2234   1.479       .  S
C2079      C2247   1.492       .  S
C2080      C2227   1.486       .  S
C2091      C2547   1.477       .  S
C2091      C2976   1.412   1_545  A
C2091      C2096   1.404       .  A
C2092      C2344   1.493       .  S
C2092      C2975   1.412       .  A
C2092      C2093   1.393       .  A
C2093      C2094   1.401       .  A
C2093      H2098   1.085       .  S
C2094      C2237   1.478       .  S
C2094      C2979   1.431       .  A
C2095      C2254   1.514       .  S
C2095      C2978   1.431   1_545  A
C2095      C2096   1.405       .  A
C2096      H2097   1.081       .  S
N2099      C2104   1.354       .  A
N2099      C2987   1.352       .  A
N2099      H2131   1.040       .  S
N2100      C2107   1.349       .  A
N2100      C2108   1.353       .  A
N2101      C2106   1.348       .  A
N2101      C2989   1.352       .  A
N2101      H2132   1.041       .  S
N2102      C2109   1.351       .  A
N2102      C2110   1.351       .  A
C2103      N2983   1.352   1_545  A
C2103      C2111   1.388       .  A
C2103      C2119   1.416       .  A
C2104      C2120   1.415       .  A
C2104      C2112   1.386       .  A
C2105      N2985   1.352   1_545  A
C2105      C2113   1.388       .  A
C2105      C2122   1.415       .  A
C2106      C2121   1.404       .  A
C2106      C2114   1.384       .  A
C2107      C2119   1.412       .  A
C2107      C2115   1.385       .  A
C2108      C2122   1.416       .  A
C2108      C2116   1.385       .  A
C2109      C2117   1.386       .  A
C2109      C2120   1.413       .  A
C2110      C2118   1.383       .  A
C2110      C2121   1.411       .  A
C2111      C2996   1.378   1_545  A
C2111      H2123   1.082       .  S
C2112      C2995   1.378       .  A
C2112      H2124   1.082       .  S
C2113      C2998   1.376   1_545  A
C2113      H2125   1.082       .  S
C2114      C2997   1.376       .  A
C2114      H2126   1.082       .  S
C2115      C2116   1.374       .  A
C2115      H2127   1.080       .  S
C2116      H2128   1.081       .  S
C2117      C2118   1.374       .  A
C2117      H2129   1.082       .  S
C2118      H2130   1.081       .  S
C2119      C2194   1.487       .  S
C2120      C2174   1.491       .  S
C2121      C2187   1.483       .  S
C2122      C2204   1.502       .  S
C2133      C2314   1.479       .  S
C2133      C3018   1.403       .  A
C2133      C2138   1.399       .  A
C2134      C2627   1.468       .  S
C2134      C3017   1.403   1_545  A
C2134      C2135   1.402       .  A
C2135      C2136   1.400       .  A
C2135      H2140   1.085       .  S
C2136      C2267   1.495       .  S
C2136      C3021   1.428   1_545  A
C2137      C2244   1.492       .  S
C2137      C3020   1.428       .  A
C2137      C2138   1.406       .  A
C2138      H2139   1.083       .  S
C2141      C2327   1.483       .  S
C2141      C2142   1.420       .  A
C2141      C2146   1.409       .  A
C2142      C2577   1.495       .  S
C2142      C2143   1.405       .  A
C2143      C2144   1.403       .  A
C2143      H2148   1.084       .  S
C2144      C2197   1.480       .  S
C2144      C2145   1.413       .  A
C2145      C2277   1.489       .  S
C2145      C2146   1.403       .  A
C2146      H2147   1.084       .  S
C2149      C2297   1.496       .  S
C2149      C2150   1.429       .  A
C2149      C2154   1.409       .  A
C2150      C2604   1.496       .  S
C2150      C2151   1.409       .  A
C2151      C2152   1.398       .  A
C2151      H2156   1.084       .  S
C2152      C2207   1.481       .  S
C2152      C2153   1.410       .  A
C2153      C2287   1.484       .  S
C2153      C2154   1.403       .  A
C2154      H2155   1.085       .  S
C2157      C2337   1.471       .  S
C2157      C2162   1.403       .  A
C2158      C2567   1.491       .  S
C2158      C2159   1.402       .  A
C2159      C2160   1.406       .  A
C2159      H2164   1.084       .  S
C2160      C2214   1.487       .  S
C2161      C2177   1.490       .  S
C2161      C2162   1.401       .  A
C2162      H2163   1.085       .  S
C2165      C2637   1.486       .  S
C2165      C2170   1.401       .  A
C2166      C2304   1.477       .  S
C2166      C2167   1.400       .  A
C2167      C2168   1.401       .  A
C2167      H2172   1.085       .  S
C2168      C2184   1.491       .  S
C2169      C2224   1.494       .  S
C2169      C2170   1.406       .  A
C2170      H2171   1.084       .  S
C2173      C2174   1.404       .  A
C2173      C2178   1.400       .  A
C2173      H2180   1.084       .  S
C2174      C2175   1.409       .  A
C2175      C2176   1.400       .  A
C2175     Br2182   1.918       .  S
C2176      C2177   1.406       .  A
C2176      H2181   1.084       .  S
C2177      C2178   1.410       .  A
C2183      C2184   1.404       .  A
C2183      C2188   1.397       .  A
C2184      C2185   1.418       .  A
C2185      C2186   1.399       .  A
C2185     Br2192   1.921       .  S
C2186      C2187   1.398       .  A
C2186      H2191   1.083       .  S
C2187      C2188   1.410       .  A
C2193      C2194   1.406       .  A
C2193      C2198   1.400       .  A
C2193      H2200   1.083       .  S
C2194      C2195   1.409       .  A
C2195      C2196   1.392       .  A
C2195     Br2202   1.920       .  S
C2196      C2197   1.399       .  A
C2196      H2201   1.077       .  S
C2197      C2198   1.408       .  A
C2198     Br2199   1.918       .  S
C2203      C2204   1.409       .  A
C2203      C2208   1.395       .  A
C2203      H2210   1.083       .  S
C2204      C2205   1.415       .  A
C2205      C2206   1.404       .  A
C2205     Br2212   1.921       .  S
C2206      C2207   1.403       .  A
C2206      H2211   1.083       .  S
C2207      C2208   1.402       .  A
C2208     Br2209   1.916       .  S
C2213      C2214   1.406       .  A
C2213      C2218   1.392       .  A
C2213      H2220   1.083       .  S
C2214      C2215   1.410       .  A
C2215      C2216   1.397       .  A
C2215     Br2222   1.917   1_655  S
C2216      C2217   1.407       .  A
C2216      H2221   1.083       .  S
C2217      C2218   1.410       .  A
C2218     Br2219   1.923       .  S
C2223      C2224   1.406       .  A
C2223      C2228   1.395       .  A
C2224      C2225   1.416       .  A
C2225      C2226   1.394       .  A
C2225     Br2232   1.918       .  S
C2226      C2227   1.401       .  A
C2226      H2231   1.083       .  S
C2227      C2228   1.409       .  A
C2228     Br2229   1.918       .  S
C2233      C2234   1.398       .  A
C2233      C2238   1.389       .  A
C2233      H2240   1.084       .  S
C2234      C2235   1.412       .  A
C2235      C2236   1.398       .  A
C2235     Br2242   1.921       .  S
C2236      C2237   1.403       .  A
C2236      H2241   1.083       .  S
C2237      C2238   1.414       .  A
C2238     Br2239   1.925       .  S
C2243      C2244   1.403       .  A
C2243      C2248   1.394       .  A
C2243      H3134   1.082       .  S
C2244      C2245   1.417       .  A
C2245      C2246   1.394       .  A
C2245     Br2252   1.920       .  S
C2246      C2247   1.404       .  A
C2246      H2251   1.084       .  S
C2247      C2248   1.407       .  A
C2248     Br2249   1.899       .  S
H2250      C3127   1.082   1_545  S
C2253      C2254   1.406       .  A
C2253      C2258   1.398       .  A
C2253      H3144   1.081       .  S
C2254      C2255   1.425       .  A
C2255      C2256   1.405       .  A
C2255     Br2262   1.924       .  S
C2256      C2257   1.403       .  A
C2256      H2261   1.082       .  S
C2257      C2258   1.412       .  A
C2258     Br2259   1.910       .  S
H2260      C3137   1.081       .  S
C2263      C2264   1.407       .  A
C2263      C2268   1.400       .  A
C2263      H2270   1.084       .  S
C2264      C2265   1.408       .  A
C2265      C2266   1.404       .  A
C2265     Br2272   1.919       .  S
C2266      C2267   1.410       .  A
C2266      H2271   1.083       .  S
C2267      C2268   1.409       .  A
C2268     Br2269   1.919       .  S
C2273      C2274   1.408       .  A
C2273      C2278   1.399       .  A
C2273      H2280   1.083       .  S
C2274      C2275   1.417       .  A
C2275      C2276   1.405       .  A
C2275     Br2282   1.920       .  S
C2276      C2277   1.403       .  A
C2276      H2281   1.083       .  S
C2277      C2278   1.408       .  A
C2278     Br2279   1.919       .  S
C2283      C2284   1.408       .  A
C2283      C2288   1.399       .  A
C2283      H2290   1.083       .  S
C2284      C2285   1.416       .  A
C2285      C2286   1.403       .  A
C2285     Br2292   1.919       .  S
C2286      C2287   1.401       .  A
C2286      H2291   1.083       .  S
C2287      C2288   1.406       .  A
C2288     Br2289   1.916       .  S
C2293      C2294   1.410       .  A
C2293      C2298   1.401       .  A
C2293      H2300   1.083       .  S
C2294      C2295   1.411       .  A
C2295      C2296   1.410       .  A
C2295     Br2302   1.919       .  S
C2296      C2297   1.411       .  A
C2296      H2301   1.083       .  S
C2297      C2298   1.407       .  A
C2298     Br2299   1.918       .  S
C2303      C2304   1.404       .  A
C2303      C2308   1.404       .  A
C2303      H2310   1.084       .  S
C2304      C2305   1.400       .  A
C2305      C2306   1.394       .  A
C2305     Br2312   1.919       .  S
C2306      C2307   1.414       .  A
C2306      H2311   1.083       .  S
C2307      C2308   1.417       .  A
C2308     Br2309   1.920       .  S
C2313      C2314   1.403       .  A
C2313      C2318   1.403       .  A
C2313      H2320   1.083       .  S
C2314      C2315   1.410       .  A
C2315      C2316   1.396       .  A
C2315     Br2322   1.918       .  S
C2316      C2317   1.400       .  A
C2316      H2321   1.084       .  S
C2317      C2318   1.410       .  A
C2318     Br2319   1.918       .  S
C2323      C2324   1.405       .  A
C2323      C2328   1.399       .  A
C2323      H2330   1.084       .  S
C2324      C2325   1.408       .  A
C2325      C2326   1.402       .  A
C2325     Br2332   1.917       .  S
C2326      C2327   1.405       .  A
C2326      H2331   1.083       .  S
C2327      C2328   1.407       .  A
C2328     Br2329   1.917       .  S
C2333      C2334   1.402       .  A
C2333      C2338   1.396       .  A
C2333      H2340   1.084       .  S
C2334      C2335   1.411       .  A
C2335      C2336   1.396       .  A
C2335     Br2342   1.921       .  S
C2336      C2337   1.401       .  A
C2336      H2341   1.083       .  S
C2337      C2338   1.406       .  A
C2338     Br2339   1.918       .  S
C2343      C2344   1.410       .  A
C2343      C2348   1.409       .  A
C2343      H2350   1.083       .  S
C2344      C2345   1.407       .  A
C2345      C2346   1.395       .  A
C2345     Br2352   1.922       .  S
C2346      C2347   1.414       .  A
C2346      H2351   1.083       .  S
C2347      C2348   1.416       .  A
C2348     Br2349   1.919       .  S
C2353      C2354   1.399       .  A
C2353      C2358   1.396       .  A
C2353      H2360   1.083       .  S
C2354      C2355   1.419       .  A
C2355      C2356   1.404       .  A
C2355     Br2362   1.921       .  S
C2356      C2357   1.402       .  A
C2356      H2361   1.083       .  S
C2357      C2358   1.419       .  A
C2358     Br2359   1.924       .  S
C2363      C2364   1.404       .  A
C2363      C2368   1.404       .  A
C2363      H2370   1.083       .  S
C2364      C2365   1.406       .  A
C2365      C2366   1.398       .  A
C2365     Br2372   1.920       .  S
C2366      C2367   1.411       .  A
C2366      H2371   1.083       .  S
C2367      C2368   1.415       .  A
C2368     Br2369   1.920       .  S
C2373      C2374   1.403       .  A
C2373      C2378   1.404       .  A
C2373      H2380   1.083       .  S
C2374      C2375   1.417       .  A
C2375      C2376   1.397       .  A
C2375     Br2382   1.922       .  S
C2376      C2377   1.399       .  A
C2376      H2381   1.084       .  S
C2377      C2378   1.415       .  A
C2378     Br2379   1.918       .  S
C2383      C2384   1.406       .  A
C2383      C2388   1.400       .  A
C2383      H2390   1.084       .  S
C2384      C2385   1.407       .  A
C2385      C2386   1.401       .  A
C2385     Br2392   1.917       .  S
C2386      C2387   1.407       .  A
C2386      H2391   1.084       .  S
C2387      C2388   1.407       .  A
C2388     Br2389   1.917       .  S
C2393      C2394   1.406       .  A
C2393      C2398   1.402       .  A
C2393      H2400   1.082       .  S
C2394      C2395   1.408       .  A
C2395      C2396   1.396       .  A
C2395     Br3286   1.919       .  S
C2396      C2397   1.408       .  A
C2396      H2401   1.084       .  S
C2397      C2398   1.411       .  A
C2398     Br2399   1.920       .  S
Br2402     C3279   1.919       .  S
C2403      C2404   1.400       .  A
C2403      C2408   1.396       .  A
C2403      H2410   1.084       .  S
C2404      C2405   1.412       .  A
C2405      C2406   1.404       .  A
C2405     Br2412   1.918       .  S
C2406      C2407   1.405       .  A
C2406      H2411   1.083       .  S
C2407      C2408   1.414       .  A
C2408     Br2409   1.923       .  S
C2413      C2414   1.409       .  A
C2413      C2418   1.398       .  A
C2413      H2420   1.083       .  S
C2414      C2415   1.413       .  A
C2415      C2416   1.395       .  A
C2415     Br2422   1.922       .  S
C2416      C2417   1.405       .  A
C2416      H2421   1.083       .  S
C2417      C2418   1.409       .  A
C2418     Br2419   1.917       .  S
C2423      C2424   1.401       .  A
C2423      C2428   1.402       .  A
C2423      H2430   1.084       .  S
C2424      C2425   1.407       .  A
C2425      C2426   1.404       .  A
C2425     Br2432   1.918       .  S
C2426      C2427   1.411       .  A
C2426      H2431   1.082       .  S
C2427      C2428   1.420       .  A
C2428     Br2429   1.922       .  S
C2433      C2434   1.402       .  A
C2433      C2438   1.398       .  A
C2433      H2440   1.084       .  S
C2434      C2435   1.409       .  A
C2435      C2436   1.398       .  A
C2435     Br3326   1.921       .  S
C2436      C2437   1.406       .  A
C2436      H3325   1.083       .  S
C2437      C2438   1.413       .  A
C2438     Br2439   1.922       .  S
H2441      C3320   1.083   1_545  S
Br2442     C3319   1.921       .  S
C2443      C2444   1.406       .  A
C2443      C2448   1.399       .  A
C2443      H2450   1.083       .  S
C2444      C2445   1.413       .  A
C2445      C2446   1.401       .  A
C2445     Br2452   1.922       .  S
C2446      C2447   1.409       .  A
C2446      H2451   1.083       .  S
C2447      C2448   1.414       .  A
C2448     Br2449   1.917       .  S
C2453      C2454   1.404       .  A
C2453      C2458   1.397       .  A
C2453      H2460   1.084       .  S
C2454      C2455   1.406       .  A
C2455      C2456   1.392       .  A
C2455     Br2462   1.922       .  S
C2456      C2457   1.403       .  A
C2457      C2458   1.410       .  A
C2458     Br2459   1.920       .  S
C2463      C2464   1.407       .  A
C2463      C2468   1.397       .  A
C2463      H2470   1.083       .  S
C2464      C2465   1.406       .  A
C2465      C2466   1.392       .  A
C2465     Br2472   1.922       .  S
C2466      C2467   1.409       .  A
C2466      H2471   1.083       .  S
C2467      C2468   1.408       .  A
C2468     Br2469   1.918   1_545  S
C2473      C2474   1.400       .  A
C2473      C2478   1.394       .  A
C2473      H2480   1.084       .  S
C2474      C2475   1.412       .  A
C2475      C2476   1.395       .  A
C2475     Br2482   1.921       .  S
C2476      C2477   1.405       .  A
C2476      H2481   1.083       .  S
C2477      C2478   1.418       .  A
C2478     Br2479   1.923       .  S
C2483      C2484   1.404       .  A
C2483      C2488   1.393       .  A
C2483      H2490   1.078       .  S
C2484      C2485   1.409       .  A
C2485      C2486   1.397       .  A
C2485     Br2492   1.921       .  S
C2486      C2487   1.405       .  A
C2486      H2491   1.084       .  S
C2487      C2488   1.407       .  A
C2488     Br2489   1.923       .  S
C2493      C2494   1.409       .  A
C2493      C2498   1.393       .  A
C2493      H2500   1.083       .  S
C2494      C2495   1.416       .  A
C2495      C2496   1.403       .  A
C2495     Br2502   1.921       .  S
C2496      C2497   1.402       .  A
C2496      H2501   1.083       .  S
C2497      C2498   1.403       .  A
C2503      C2504   1.400       .  A
C2503      C2508   1.400       .  A
C2503      H2510   1.083       .  S
C2504      C2505   1.410       .  A
C2505      C2506   1.399       .  A
C2505     Br2512   1.920       .  S
C2506      C2507   1.404       .  A
C2506      H2511   1.083       .  S
C2507      C2508   1.415       .  A
C2508     Br2509   1.921       .  S
C2513      C2514   1.411       .  A
C2513      C2518   1.398       .  A
C2513      H2520   1.083       .  S
C2514      C2515   1.420       .  A
C2515      C2516   1.397       .  A
C2515     Br2522   1.925       .  S
C2516      C2517   1.398       .  A
C2516      H2521   1.084       .  S
C2517      C2518   1.403       .  A
C2518     Br2519   1.917       .  S
C2523      C2524   1.408       .  A
C2523      C2528   1.399       .  A
C2523      H2530   1.084       .  S
C2524      C2525   1.409       .  A
C2525      C2526   1.401       .  A
C2525     Br2532   1.919       .  S
C2526      C2527   1.405       .  A
C2526      H2531   1.083       .  S
C2527      C2528   1.405       .  A
C2528     Br2529   1.916       .  S
C2533      C2534   1.406       .  A
C2533      C2538   1.396       .  A
C2533      H2540   1.084       .  S
C2534      C2535   1.410       .  A
C2535      C2536   1.402       .  A
C2535     Br2542   1.919       .  S
C2536      C2537   1.406       .  A
C2536      H2541   1.084       .  S
C2537      C2538   1.405       .  A
C2543      C2544   1.405       .  A
C2543      C2548   1.389       .  A
C2543      H2550   1.083       .  S
C2544      C2545   1.415       .  A
C2545      C2546   1.403       .  A
C2545     Br2552   1.921       .  S
C2546      C2547   1.406       .  A
C2546      H2551   1.083       .  S
C2547      C2548   1.407       .  A
C2548     Br3433   1.922       .  S
Br2549     C3432   1.922       .  S
C2553      C2554   1.391       .  A
C2553      C2558   1.392       .  A
C2553      H2560   1.083       .  S
C2554      C2555   1.410       .  A
C2555      C2556   1.406       .  A
C2555     Br2562   1.918       .  S
C2556      C2557   1.406       .  A
C2556      H2561   1.083       .  S
C2557      C2558   1.431       .  A
C2558     Br2559   1.930       .  S
C2563      C2564   1.404       .  A
C2563      C2568   1.402       .  A
C2563      H2570   1.083       .  S
C2564      C2565   1.407       .  A
C2565      C2566   1.402       .  A
C2565     Br2572   1.917       .  S
C2566      C2567   1.406       .  A
C2566      H2571   1.079       .  S
C2567      C2568   1.411       .  A
C2568     Br2569   1.920       .  S
C2573      C2574   1.408       .  A
C2573      C2578   1.405       .  A
C2573      H2580   1.083       .  S
C2574      C2575   1.422       .  A
C2575      C2576   1.402       .  A
C2575     Br2582   1.923       .  S
C2576      C2577   1.401       .  A
C2576      H2581   1.083       .  S
C2577      C2578   1.412       .  A
C2578     Br2579   1.920       .  S
C2583      C2584   1.405       .  A
C2583      C2588   1.402       .  A
C2583      H2590   1.084       .  S
C2584      C2585   1.416       .  A
C2585      C2586   1.406       .  A
C2585     Br2592   1.920       .  S
C2586      C2587   1.406       .  A
C2586      H2591   1.083       .  S
C2587      C2588   1.413       .  A
C2588     Br2589   1.919       .  S
C2593      C2594   1.400       .  A
C2593      C2598   1.398       .  A
C2593      H2600   1.084       .  S
C2594      C2595   1.410       .  A
C2595      C2596   1.404       .  A
C2595     Br2602   1.918       .  S
C2596      C2597   1.404       .  A
C2596      H2601   1.083       .  S
C2597      C2598   1.411       .  A
C2598     Br2599   1.919       .  S
C2603      C2604   1.402       .  A
C2603      C2608   1.404       .  A
C2603      H2610   1.083       .  S
C2604      C2605   1.418       .  A
C2605      C2606   1.401       .  A
C2605     Br2612   1.923       .  S
C2606      C2607   1.403       .  A
C2606      H2611   1.083       .  S
C2607      C2608   1.419       .  A
C2608     Br2609   1.922   1_554  S
C2613      C2614   1.405       .  A
C2613      C2618   1.403       .  A
C2613      H2620   1.083       .  S
C2614      C2615   1.425       .  A
C2615      C2616   1.399       .  A
C2615     Br2622   1.924   1_556  S
C2616      C2617   1.398       .  A
C2616      H2621   1.084       .  S
C2617      C2618   1.414       .  A
C2618     Br2619   1.920       .  S
C2623      C2624   1.405       .  A
C2623      C2628   1.393       .  A
C2623      H2630   1.084       .  S
C2624      C2625   1.411       .  A
C2625      C2626   1.397       .  A
C2625     Br2632   1.921       .  S
C2626      C2627   1.401       .  A
C2626      H2631   1.084       .  S
C2627      C2628   1.404       .  A
C2628     Br3513   1.916       .  S
Br2629     C3512   1.916       .  S
C2633      C2634   1.406       .  A
C2633      C2638   1.403       .  A
C2633      H2640   1.083       .  S
C2634      C2635   1.425       .  A
C2635      C2636   1.397       .  A
C2635     Br2642   1.923       .  S
C2636      C2637   1.396       .  A
C2636      H2641   1.083       .  S
C2637      C2638   1.412       .  A
C2638     Br2639   1.915       .  S
C2643      C2644   1.396       .  A
C2643      C2648   1.399       .  A
C2643      H2650   1.083       .  S
C2644      C2645   1.416       .  A
C2645      C2646   1.405       .  A
C2645     Br2652   1.922       .  S
C2646      C2647   1.405       .  A
C2646      H2651   1.083       .  S
C2647      C2648   1.426       .  A
C2648     Br2649   1.926       .  S
O2653     Ni2659   1.929       .  S
O2653      C2674   1.270       .  A
O2654     Ni2677   1.945       .  S
O2654      C2663   1.280       .  A
O2655     Ni2659   1.892       .  S
O2655     Ni2677   1.913   1_554  S
O2655     Ni2671   1.912       .  S
O2655      H2678   0.976       .  S
C2656      O2673   1.277       .  A
C2656      O2665   1.281       .  A
C2656      C3478   1.475       .  S
O2657     Ni2676   1.912       .  S
O2657      C2663   1.264       .  A
O2658     Ni2676   1.903       .  S
O2658      C2660   1.264   1_556  A
Ni2659     O2662   1.916       .  S
Ni2659     O2664   1.893       .  S
C2660      O2670   1.275       .  A
C2660      C3491   1.492       .  S
O2661     Ni2677   1.940   1_554  S
O2661      C2667   1.286       .  A
O2662      C2667   1.275       .  A
C2663      C3531   1.497       .  S
O2664      C2666   1.264   1_554  A
O2665     Ni2676   1.930       .  S
C2666      O2672   1.281       .  A
C2666      C3498   1.497       .  S
C2667      C3518   1.496       .  S
H2668      O2669   0.961       .  S
O2669     Ni2677   1.928       .  S
O2669     Ni2671   1.888   1_556  S
O2669     Ni2676   1.892       .  S
O2670     Ni2671   1.943       .  S
Ni2671     O2675   1.897       .  S
Ni2671     O2673   1.923   1_554  S
O2672     Ni2677   1.953       .  S
C2674      O2675   1.263       .  A
C2674      C3508   1.472       .  S
O2679     Ni2685   1.928       .  S
O2679      C2700   1.272       .  A
O2680     Ni2703   1.912       .  S
O2680      C2689   1.268       .  A
O2681     Ni2685   1.894       .  S
O2681     Ni2703   1.900       .  S
O2681     Ni2697   1.924       .  S
O2681      H2704   0.966       .  S
C2682      O2699   1.286       .  A
C2682      O2691   1.267       .  A
C2682      C3441   1.495       .  S
O2683     Ni2702   1.921       .  S
O2683      C2689   1.269       .  A
O2684     Ni2702   1.894       .  S
O2684      C2686   1.266       .  A
Ni2685     O2688   1.931       .  S
Ni2685     O2690   1.926       .  S
C2686      O2696   1.271       .  A
C2686      C3428   1.482       .  S
O2687     Ni2703   1.929       .  S
O2687      C2693   1.276       .  A
O2688      C2693   1.278       .  A
C2689      C3418   1.477       .  S
O2690      C2692   1.272       .  A
O2691     Ni2702   1.913       .  S
C2692      O2698   1.274       .  A
C2692      C3468   1.492       .  S
C2693      C3448   1.479       .  S
H2694      O2695   0.963       .  S
O2695     Ni2703   1.912       .  S
O2695     Ni2697   1.922       .  S
O2695     Ni2702   1.895       .  S
O2696     Ni2697   1.945       .  S
Ni2697     O2701   1.932       .  S
Ni2697     O2699   1.944       .  S
O2698     Ni2703   1.929       .  S
C2700      O2701   1.278       .  A
C2700      C3458   1.499       .  S
N2705      C2710   1.351       .  A
N2705      H2737   1.043       .  S
N2706      C2713   1.350       .  A
N2706      C2714   1.349       .  A
N2707      C2712   1.351       .  A
N2707      H2738   1.042       .  S
N2708      C2715   1.348       .  A
N2708      C2716   1.349       .  A
C2709      C2717   1.385       .  A
C2709      C2725   1.407       .  A
C2710      C2726   1.415       .  A
C2710      C2718   1.388       .  A
C2711      C2719   1.385       .  A
C2711      C2728   1.408       .  A
C2712      C2727   1.416       .  A
C2712      C2720   1.389       .  A
C2713      C2725   1.411       .  A
C2713      C2721   1.386       .  A
C2714      C2728   1.413       .  A
C2714      C2722   1.387       .  A
C2715      C2723   1.388       .  A
C2715      C2726   1.415       .  A
C2716      C2724   1.387       .  A
C2716      C2727   1.413       .  A
C2717      H2729   1.082       .  S
C2718      H2730   1.082       .  S
C2719      H2731   1.082       .  S
C2720      H2732   1.082       .  S
C2721      C2722   1.381       .  A
C2721      H2733   1.082       .  S
C2722      H2734   1.082       .  S
C2723      C2724   1.381       .  A
C2723      H2735   1.082       .  S
C2724      H2736   1.082       .  S
C2725      C3411   1.485       .  S
C2726      C3398   1.501       .  S
C2727      C3378   1.499       .  S
C2728      C3388   1.484       .  S
N2739      C2744   1.355       .  A
N2739      C2743   1.352       .  A
N2739      H2771   1.038       .  S
N2740      C2747   1.352       .  A
N2740      C2748   1.351       .  A
N2741      C2746   1.355       .  A
N2741      C2745   1.353       .  A
N2741      H2772   1.039       .  S
N2742      C2749   1.344       .  A
N2742      C2750   1.344       .  A
C2743      C2751   1.386       .  A
C2743      C2759   1.417       .  A
C2744      C2760   1.421       .  A
C2744      C2752   1.388       .  A
C2745      C2753   1.386       .  A
C2745      C2762   1.415       .  A
C2746      C2761   1.420       .  A
C2746      C2754   1.388       .  A
C2747      C2759   1.413       .  A
C2747      C2755   1.387       .  A
C2748      C2762   1.413       .  A
C2748      C2756   1.387       .  A
C2749      C2757   1.386       .  A
C2749      C2760   1.403       .  A
C2750      C2758   1.386       .  A
C2750      C2761   1.404       .  A
C2751      C2752   1.368       .  A
C2751      H2763   1.079       .  S
C2752      H2764   1.081       .  S
C2753      C2754   1.368       .  A
C2753      H2765   1.080       .  S
C2754      H2766   1.081       .  S
C2755      C2756   1.367       .  A
C2755      H2767   1.082       .  S
C2756      H2768   1.082       .  S
C2757      C2758   1.374       .  A
C2757      H2769   1.082       .  S
C2758      H2770   1.082       .  S
C2759      C3371   1.485       .  S
C2760      C3358   1.488       .  S
C2761      C3348   1.487       .  S
C2762      C3338   1.484       .  S
N2773      C2777   1.353       .  A
N2773      H2805   1.042       .  S
N2774      C2781   1.353       .  A
N2774      C2782   1.351       .  A
N2775      C2779   1.352       .  A
N2775      H2806   1.042       .  S
N2776      C2783   1.348       .  A
N2776      C2784   1.350       .  A
C2777      C2785   1.386       .  A
C2777      C2793   1.414       .  A
C2778      C2794   1.419       .  A
C2778      C2786   1.388       .  A
C2779      C2787   1.389       .  A
C2779      C2796   1.416       .  A
C2780      C2795   1.418       .  A
C2780      C2788   1.386       .  A
C2781      C2793   1.415       .  A
C2781      C2789   1.385       .  A
C2782      C2796   1.416       .  A
C2782      C2790   1.387       .  A
C2783      C2791   1.387       .  A
C2783      C2794   1.413       .  A
C2784      C2792   1.385       .  A
C2784      C2795   1.411       .  A
C2785      H2797   1.081       .  S
C2786      H2798   1.082       .  S
C2787      H2799   1.080       .  S
C2788      H2800   1.081       .  S
C2789      C2790   1.376       .  A
C2789      H2801   1.082       .  S
C2790      H2802   1.081       .  S
C2791      C2792   1.377       .  A
C2791      H2803   1.082       .  S
C2792      H2804   1.082       .  S
C2793      C3308   1.493       .  S
C2794      C3298   1.498       .  S
C2795      C3328   1.503       .  S
C2796      C3318   1.486       .  S
C2807      C3291   1.488       .  S
C2807      C2812   1.405       .  A
C2808      C3421   1.478       .  S
C2808      C2809   1.406       .  A
C2809      C2810   1.398       .  A
C2809      H2814   1.085       .  S
C2810      C3401   1.478       .  S
C2811      C3368   1.484       .  S
C2811      C2812   1.400       .  A
C2812      H2813   1.085       .  S
C2815      C3438   1.475       .  S
C2815      C2820   1.396       .  A
C2816      C3278   1.484       .  S
C2816      C2817   1.404       .  A
C2817      C2818   1.407       .  A
C2817      H2822   1.084       .  S
C2818      C3321   1.488       .  S
C2819      C3361   1.492       .  S
C2819      C2820   1.395       .  A
C2820      H2821   1.084       .  S
C2823      C3528   1.492       .  S
C2823      C2824   1.419       .  A
C2823      C2828   1.402       .  A
C2824      C3268   1.483       .  S
C2824      C2825   1.405       .  A
C2825      C2826   1.402       .  A
C2825      H2830   1.085       .  S
C2826      C3391   1.490       .  S
C2826      C2827   1.420       .  A
C2827      C3301   1.490       .  S
C2827      C2828   1.404       .  A
C2828      H2829   1.085       .  S
C2831      C3471   1.498       .  S
C2831      C2832   1.419       .  A
C2831      C2836   1.411       .  A
C2832      C3261   1.487       .  S
C2832      C2833   1.402       .  A
C2833      C2834   1.403       .  A
C2833      H2838   1.085       .  S
C2834      C3408   1.490       .  S
C2834      C2835   1.425       .  A
C2835      C3331   1.503       .  S
C2835      C2836   1.412       .  A
C2836      H2837   1.083       .  S
C2839      C3248   1.484       .  S
C2839      C2844   1.409       .  A
C2840      C3481   1.481       .  S
C2840      C2841   1.394       .  A
C2841      C2842   1.402       .  A
C2841      H2846   1.085       .  S
C2842      C3351   1.486       .  S
C2843      C3311   1.507       .  S
C2843      C2844   1.410       .  A
C2844      H2845   1.083       .  S
C2847      C3238   1.493       .  S
C2847      C2852   1.405       .  A
C2848      C3501   1.491       .  S
C2848      C2849   1.407       .  A
C2849      C2850   1.398       .  A
C2849      H2854   1.085       .  S
C2850      C3381   1.479       .  S
C2851      C3341   1.486       .  S
C2851      C2852   1.399       .  A
C2852      H2853   1.084       .  S
O2855     Ni2861   1.926       .  S
O2855      C2876   1.267       .  A
O2856     Ni2879   1.933       .  S
O2856      C2865   1.278       .  A
O2857     Ni2861   1.895       .  S
O2857     Ni2879   1.910       .  S
O2857     Ni2873   1.915       .  S
O2857      H2880   0.967       .  S
C2858      O2875   1.277       .  A
C2858      O2867   1.280       .  A
C2858      C3288   1.477       .  S
O2859     Ni2878   1.915       .  S
O2859      C2865   1.269       .  A
O2860     Ni2878   1.906       .  S
O2860      C2862   1.266       .  A
Ni2861     O2864   1.910       .  S
Ni2861     O2866   1.891       .  S
C2862      O2872   1.272       .  A
C2862      C3208   1.478       .  S
O2863     Ni2879   1.952       .  S
O2863      C2869   1.286       .  A
O2864      C2869   1.277       .  A
C2865      C3258   1.484       .  S
O2866      C2868   1.266       .  A
O2867     Ni2878   1.926       .  S
C2868      O2874   1.276       .  A
C2868      C3281   1.483       .  S
C2869      C3231   1.505       .  S
H2870      O2871   0.965       .  S
O2871     Ni2879   1.931       .  S
O2871     Ni2873   1.891       .  S
O2871     Ni2878   1.897       .  S
O2872     Ni2873   1.933       .  S
Ni2873     O2877   1.901       .  S
Ni2873     O2875   1.925       .  S
O2874     Ni2879   1.940       .  S
C2876      O2877   1.264       .  A
C2876      C3218   1.471       .  S
O2881     Ni2887   1.920       .  S
O2881      C2902   1.270       .  A
O2882     Ni2905   1.924       .  S
O2882      C2891   1.270       .  A
O2883     Ni2887   1.898       .  S
O2883     Ni2905   1.901   1_554  S
O2883     Ni2899   1.923       .  S
O2883      H2906   0.966       .  S
C2884      O2901   1.285       .  A
C2884      O2893   1.274       .  A
C2884      C3241   1.486       .  S
O2885     Ni2904   1.923       .  S
O2885      C2891   1.269       .  A
O2886     Ni2904   1.893       .  S
O2886      C2888   1.268   1_556  A
Ni2887     O2890   1.924       .  S
Ni2887     O2892   1.900       .  S
C2888      O2898   1.277       .  A
C2888      C3191   1.495       .  S
O2889     Ni2905   1.922   1_554  S
O2889      C2895   1.277       .  A
O2890      C2895   1.278       .  A
C2891      C3251   1.494       .  S
O2892      C2894   1.266   1_554  A
O2893     Ni2904   1.906       .  S
C2894      O2900   1.276       .  A
C2894      C3271   1.479       .  S
C2895      C3201   1.471       .  S
H2896      O2897   0.965       .  S
O2897     Ni2905   1.915       .  S
O2897     Ni2899   1.913   1_556  S
O2897     Ni2904   1.892       .  S
O2898     Ni2899   1.946       .  S
Ni2899     O2903   1.941       .  S
Ni2899     O2901   1.946   1_554  S
O2900     Ni2905   1.942       .  S
C2902      O2903   1.280       .  A
C2902      C3178   1.496       .  S
N2907      C2912   1.350       .  A
N2907      H2939   1.039       .  S
N2908      C2915   1.352       .  A
N2908      C2916   1.351       .  A
N2909      C2914   1.357       .  A
N2909      H2940   1.038       .  S
N2910      C2917   1.356       .  A
N2910      C2918   1.356       .  A
C2911      C2919   1.389       .  A
C2911      C2927   1.420       .  A
C2912      C2928   1.410       .  A
C2912      C2920   1.384       .  A
C2913      C2921   1.383       .  A
C2913      C2930   1.423       .  A
C2914      C2929   1.428       .  A
C2914      C2922   1.391       .  A
C2915      C2927   1.415       .  A
C2915      C2923   1.384       .  A
C2916      C2930   1.413       .  A
C2916      C2924   1.384       .  A
C2917      C2925   1.385       .  A
C2917      C2928   1.420       .  A
C2918      C2926   1.386       .  A
C2918      C2929   1.424       .  A
C2919      H2931   1.082       .  S
C2920      H2932   1.083       .  S
C2921      H2933   1.082       .  S
C2922      H2934   1.075       .  S
C2923      C2924   1.376       .  A
C2923      H2935   1.080       .  S
C2924      H2936   1.079       .  S
C2925      C2926   1.371       .  A
C2925      H2937   1.081       .  S
C2926      H2938   1.082       .  S
C2927      C3168   1.503       .  S
C2928      C3148   1.496       .  S
C2929      C3141   1.510       .  S
C2930      C3158   1.506       .  S
N2941      C2946   1.349       .  A
N2941      C2945   1.350       .  A
N2941      H2973   1.043       .  S
N2942      C2949   1.343       .  A
N2942      C2950   1.342       .  A
N2943      C2948   1.345       .  A
N2943      C2947   1.348       .  A
N2943      H2974   1.044       .  S
N2944      C2951   1.346       .  A
N2944      C2952   1.350       .  A
C2945      C2953   1.387       .  A
C2945      C2961   1.415       .  A
C2946      C2962   1.410       .  A
C2946      C2954   1.387       .  A
C2947      C2955   1.390       .  A
C2947      C2964   1.412       .  A
C2948      C2963   1.405       .  A
C2948      C2956   1.385       .  A
C2949      C2961   1.407       .  A
C2949      C2957   1.387       .  A
C2950      C2964   1.406       .  A
C2950      C2958   1.387       .  A
C2951      C2959   1.390       .  A
C2951      C2962   1.415       .  A
C2952      C2960   1.383       .  A
C2952      C2963   1.410       .  A
C2953      C2954   1.376       .  A
C2953      H2965   1.081       .  S
C2954      H2966   1.081       .  S
C2955      C2956   1.379       .  A
C2955      H2967   1.082       .  S
C2956      H2968   1.082       .  S
C2957      C2958   1.381       .  A
C2957      H2969   1.082       .  S
C2958      H2970   1.082       .  S
C2959      C2960   1.378       .  A
C2959      H2971   1.080       .  S
C2960      H2972   1.082       .  S
C2961      C3101   1.489       .  S
C2962      C3118   1.479       .  S
C2963      C3131   1.492       .  S
C2964      C3111   1.486       .  S
C2975      C3431   1.477       .  S
C2975      C2980   1.404       .  A
C2976      C3228   1.493       .  S
C2976      C2977   1.393       .  A
C2977      C2978   1.401       .  A
C2977      H2982   1.085       .  S
C2978      C3121   1.478       .  S
C2979      C3138   1.514       .  S
C2979      C2980   1.405       .  A
C2980      H2981   1.081       .  S
N2983      C2988   1.354       .  A
N2983      H3015   1.040       .  S
N2984      C2991   1.349       .  A
N2984      C2992   1.353       .  A
N2985      C2990   1.348       .  A
N2985      H3016   1.041       .  S
N2986      C2993   1.351       .  A
N2986      C2994   1.351       .  A
C2987      C2995   1.388       .  A
C2987      C3003   1.416       .  A
C2988      C3004   1.415       .  A
C2988      C2996   1.386       .  A
C2989      C2997   1.388       .  A
C2989      C3006   1.415       .  A
C2990      C3005   1.404       .  A
C2990      C2998   1.384       .  A
C2991      C3003   1.412       .  A
C2991      C2999   1.385       .  A
C2992      C3006   1.416       .  A
C2992      C3000   1.385       .  A
C2993      C3001   1.386       .  A
C2993      C3004   1.413       .  A
C2994      C3002   1.383       .  A
C2994      C3005   1.411       .  A
C2995      H3007   1.082       .  S
C2996      H3008   1.082       .  S
C2997      H3009   1.082       .  S
C2998      H3010   1.082       .  S
C2999      C3000   1.374       .  A
C2999      H3011   1.080       .  S
C3000      H3012   1.081       .  S
C3001      C3002   1.374       .  A
C3001      H3013   1.082       .  S
C3002      H3014   1.081       .  S
C3003      C3078   1.487       .  S
C3004      C3058   1.491       .  S
C3005      C3071   1.483       .  S
C3006      C3088   1.502       .  S
C3017      C3198   1.479       .  S
C3017      C3022   1.399       .  A
C3018      C3511   1.468       .  S
C3018      C3019   1.402       .  A
C3019      C3020   1.400       .  A
C3019      H3024   1.085       .  S
C3020      C3151   1.495       .  S
C3021      C3128   1.492       .  S
C3021      C3022   1.406       .  A
C3022      H3023   1.083       .  S
C3025      C3211   1.483       .  S
C3025      C3026   1.420       .  A
C3025      C3030   1.409       .  A
C3026      C3461   1.495       .  S
C3026      C3027   1.405       .  A
C3027      C3028   1.403       .  A
C3027      H3032   1.084       .  S
C3028      C3081   1.480       .  S
C3028      C3029   1.413       .  A
C3029      C3161   1.489       .  S
C3029      C3030   1.403       .  A
C3030      H3031   1.084       .  S
C3033      C3181   1.496       .  S
C3033      C3034   1.429       .  A
C3033      C3038   1.409       .  A
C3034      C3488   1.496       .  S
C3034      C3035   1.409       .  A
C3035      C3036   1.398       .  A
C3035      H3040   1.084       .  S
C3036      C3091   1.481       .  S
C3036      C3037   1.410       .  A
C3037      C3171   1.484       .  S
C3037      C3038   1.403       .  A
C3038      H3039   1.085       .  S
C3041      C3221   1.471       .  S
C3041      C3046   1.403       .  A
C3042      C3451   1.491       .  S
C3042      C3043   1.402       .  A
C3043      C3044   1.406       .  A
C3043      H3048   1.084       .  S
C3044      C3098   1.487       .  S
C3045      C3061   1.490       .  S
C3045      C3046   1.401       .  A
C3046      H3047   1.085       .  S
C3049      C3521   1.486       .  S
C3049      C3054   1.401       .  A
C3050      C3188   1.477       .  S
C3050      C3051   1.400       .  A
C3051      C3052   1.401       .  A
C3051      H3056   1.085       .  S
C3052      C3068   1.491       .  S
C3053      C3108   1.494       .  S
C3053      C3054   1.406       .  A
C3054      H3055   1.084       .  S
C3057      C3058   1.404       .  A
C3057      C3062   1.400       .  A
C3057      H3064   1.084       .  S
C3058      C3059   1.409       .  A
C3059      C3060   1.400       .  A
C3059     Br3066   1.918       .  S
C3060      C3061   1.406       .  A
C3060      H3065   1.084       .  S
C3061      C3062   1.410       .  A
C3067      C3068   1.404       .  A
C3067      C3072   1.397       .  A
C3068      C3069   1.418       .  A
C3069      C3070   1.399       .  A
C3069     Br3076   1.921       .  S
C3070      C3071   1.398       .  A
C3070      H3075   1.083       .  S
C3071      C3072   1.410       .  A
C3077      C3078   1.406       .  A
C3077      C3082   1.400       .  A
C3077      H3084   1.083       .  S
C3078      C3079   1.409       .  A
C3079      C3080   1.392       .  A
C3079     Br3086   1.920       .  S
C3080      C3081   1.399       .  A
C3080      H3085   1.077       .  S
C3081      C3082   1.408       .  A
C3082     Br3083   1.918       .  S
C3087      C3088   1.409       .  A
C3087      C3092   1.395       .  A
C3087      H3094   1.083       .  S
C3088      C3089   1.415       .  A
C3089      C3090   1.404       .  A
C3089     Br3096   1.921       .  S
C3090      C3091   1.403       .  A
C3090      H3095   1.083       .  S
C3091      C3092   1.402       .  A
C3092     Br3093   1.916       .  S
C3097      C3098   1.406       .  A
C3097      C3102   1.392       .  A
C3097      H3104   1.083       .  S
C3098      C3099   1.410       .  A
C3099      C3100   1.397       .  A
C3099     Br3106   1.917   1_655  S
C3100      C3101   1.407       .  A
C3100      H3105   1.083       .  S
C3101      C3102   1.410       .  A
C3102     Br3103   1.923       .  S
C3107      C3108   1.406       .  A
C3107      C3112   1.395       .  A
C3108      C3109   1.416       .  A
C3109      C3110   1.394       .  A
C3109     Br3116   1.918       .  S
C3110      C3111   1.401       .  A
C3110      H3115   1.083       .  S
C3111      C3112   1.409       .  A
C3112     Br3113   1.918       .  S
C3117      C3118   1.398       .  A
C3117      C3122   1.389       .  A
C3117      H3124   1.084       .  S
C3118      C3119   1.412       .  A
C3119      C3120   1.398       .  A
C3119     Br3126   1.921       .  S
C3120      C3121   1.403       .  A
C3120      H3125   1.083   1_565  S
C3121      C3122   1.414       .  A
C3122     Br3123   1.925       .  S
C3127      C3128   1.403       .  A
C3127      C3132   1.394       .  A
C3128      C3129   1.417       .  A
C3129      C3130   1.394       .  A
C3129     Br3136   1.920       .  S
C3130      C3131   1.404       .  A
C3130      H3135   1.084       .  S
C3131      C3132   1.407       .  A
C3132     Br3133   1.899   1_565  S
C3137      C3138   1.406       .  A
C3137      C3142   1.398       .  A
C3138      C3139   1.425       .  A
C3139      C3140   1.405       .  A
C3139     Br3146   1.924       .  S
C3140      C3141   1.403       .  A
C3140      H3145   1.082       .  S
C3141      C3142   1.412       .  A
C3142     Br3143   1.910       .  S
C3147      C3148   1.407       .  A
C3147      C3152   1.400       .  A
C3147      H3154   1.084       .  S
C3148      C3149   1.408       .  A
C3149      C3150   1.404       .  A
C3149     Br3156   1.919       .  S
C3150      C3151   1.410       .  A
C3150      H3155   1.083       .  S
C3151      C3152   1.409       .  A
C3152     Br3153   1.919       .  S
C3157      C3158   1.408       .  A
C3157      C3162   1.399       .  A
C3157      H3164   1.083       .  S
C3158      C3159   1.417       .  A
C3159      C3160   1.405       .  A
C3159     Br3166   1.920       .  S
C3160      C3161   1.403       .  A
C3160      H3165   1.083       .  S
C3161      C3162   1.408       .  A
C3162     Br3163   1.919       .  S
C3167      C3168   1.408       .  A
C3167      C3172   1.399       .  A
C3167      H3174   1.083       .  S
C3168      C3169   1.416       .  A
C3169      C3170   1.403       .  A
C3169     Br3176   1.919       .  S
C3170      C3171   1.401       .  A
C3170      H3175   1.083       .  S
C3171      C3172   1.406       .  A
C3172     Br3173   1.916       .  S
C3177      C3178   1.410       .  A
C3177      C3182   1.401       .  A
C3177      H3184   1.083       .  S
C3178      C3179   1.411       .  A
C3179      C3180   1.410       .  A
C3179     Br3186   1.919       .  S
C3180      C3181   1.411       .  A
C3180      H3185   1.083       .  S
C3181      C3182   1.407       .  A
C3182     Br3183   1.918       .  S
C3187      C3188   1.404       .  A
C3187      C3192   1.404       .  A
C3187      H3194   1.084       .  S
C3188      C3189   1.400       .  A
C3189      C3190   1.394       .  A
C3189     Br3196   1.919       .  S
C3190      C3191   1.414       .  A
C3190      H3195   1.083       .  S
C3191      C3192   1.417       .  A
C3192     Br3193   1.920       .  S
C3197      C3198   1.403       .  A
C3197      C3202   1.403       .  A
C3197      H3204   1.083       .  S
C3198      C3199   1.410       .  A
C3199      C3200   1.396       .  A
C3199     Br3206   1.918       .  S
C3200      C3201   1.400       .  A
C3200      H3205   1.084       .  S
C3201      C3202   1.410       .  A
C3202     Br3203   1.918       .  S
C3207      C3208   1.405       .  A
C3207      C3212   1.399       .  A
C3207      H3214   1.084       .  S
C3208      C3209   1.408       .  A
C3209      C3210   1.402       .  A
C3209     Br3216   1.917       .  S
C3210      C3211   1.405       .  A
C3210      H3215   1.083       .  S
C3211      C3212   1.407       .  A
C3212     Br3213   1.917       .  S
C3217      C3218   1.402       .  A
C3217      C3222   1.396       .  A
C3217      H3224   1.084       .  S
C3218      C3219   1.411       .  A
C3219      C3220   1.396       .  A
C3219     Br3226   1.921       .  S
C3220      C3221   1.401       .  A
C3220      H3225   1.083       .  S
C3221      C3222   1.406       .  A
C3222     Br3223   1.918       .  S
C3227      C3228   1.410       .  A
C3227      C3232   1.409       .  A
C3227      H3234   1.083       .  S
C3228      C3229   1.407       .  A
C3229      C3230   1.395       .  A
C3229     Br3236   1.922       .  S
C3230      C3231   1.414       .  A
C3230      H3235   1.083       .  S
C3231      C3232   1.416       .  A
C3232     Br3233   1.919       .  S
C3237      C3238   1.399       .  A
C3237      C3242   1.396       .  A
C3237      H3244   1.083       .  S
C3238      C3239   1.419       .  A
C3239      C3240   1.404       .  A
C3239     Br3246   1.921       .  S
C3240      C3241   1.402       .  A
C3240      H3245   1.083       .  S
C3241      C3242   1.419       .  A
C3242     Br3243   1.924       .  S
C3247      C3248   1.404       .  A
C3247      C3252   1.404       .  A
C3247      H3254   1.083       .  S
C3248      C3249   1.406       .  A
C3249      C3250   1.398       .  A
C3249     Br3256   1.920       .  S
C3250      C3251   1.411       .  A
C3250      H3255   1.083       .  S
C3251      C3252   1.415       .  A
C3252     Br3253   1.920       .  S
C3257      C3258   1.403       .  A
C3257      C3262   1.404       .  A
C3257      H3264   1.083       .  S
C3258      C3259   1.417       .  A
C3259      C3260   1.397       .  A
C3259     Br3266   1.922       .  S
C3260      C3261   1.399       .  A
C3260      H3265   1.084       .  S
C3261      C3262   1.415       .  A
C3262     Br3263   1.918       .  S
C3267      C3268   1.406       .  A
C3267      C3272   1.400       .  A
C3267      H3274   1.084       .  S
C3268      C3269   1.407       .  A
C3269      C3270   1.401       .  A
C3269     Br3276   1.917       .  S
C3270      C3271   1.407       .  A
C3270      H3275   1.084       .  S
C3271      C3272   1.407       .  A
C3272     Br3273   1.917       .  S
C3277      C3278   1.406       .  A
C3277      C3282   1.402       .  A
C3277      H3284   1.082       .  S
C3278      C3279   1.408       .  A
C3279      C3280   1.396       .  A
C3280      C3281   1.408       .  A
C3280      H3285   1.084       .  S
C3281      C3282   1.411       .  A
C3282     Br3283   1.920       .  S
C3287      C3288   1.400       .  A
C3287      C3292   1.396       .  A
C3287      H3294   1.084       .  S
C3288      C3289   1.412       .  A
C3289      C3290   1.404       .  A
C3289     Br3296   1.918       .  S
C3290      C3291   1.405       .  A
C3290      H3295   1.083       .  S
C3291      C3292   1.414       .  A
C3292     Br3293   1.923       .  S
C3297      C3298   1.409       .  A
C3297      C3302   1.398       .  A
C3297      H3304   1.083       .  S
C3298      C3299   1.413       .  A
C3299      C3300   1.395       .  A
C3299     Br3306   1.922       .  S
C3300      C3301   1.405       .  A
C3300      H3305   1.083       .  S
C3301      C3302   1.409       .  A
C3302     Br3303   1.917       .  S
C3307      C3308   1.401       .  A
C3307      C3312   1.402       .  A
C3307      H3314   1.084       .  S
C3308      C3309   1.407       .  A
C3309      C3310   1.404       .  A
C3309     Br3316   1.918   1_565  S
C3310      C3311   1.411       .  A
C3310      H3315   1.082   1_565  S
C3311      C3312   1.420       .  A
C3312     Br3313   1.922       .  S
C3317      C3318   1.402       .  A
C3317      C3322   1.398       .  A
C3317      H3324   1.084       .  S
C3318      C3319   1.409       .  A
C3319      C3320   1.398       .  A
C3320      C3321   1.406       .  A
C3321      C3322   1.413       .  A
C3322     Br3323   1.922       .  S
C3327      C3328   1.406       .  A
C3327      C3332   1.399       .  A
C3327      H3334   1.083       .  S
C3328      C3329   1.413       .  A
C3329      C3330   1.401       .  A
C3329     Br3336   1.922       .  S
C3330      C3331   1.409       .  A
C3330      H3335   1.083       .  S
C3331      C3332   1.414       .  A
C3332     Br3333   1.917       .  S
C3337      C3338   1.404       .  A
C3337      C3342   1.397       .  A
C3337      H3344   1.084       .  S
C3338      C3339   1.406       .  A
C3339      C3340   1.392       .  A
C3339     Br3346   1.922       .  S
C3340      C3341   1.403       .  A
C3341      C3342   1.410       .  A
C3342     Br3343   1.920       .  S
C3347      C3348   1.407       .  A
C3347      C3352   1.397       .  A
C3347      H3354   1.083       .  S
C3348      C3349   1.406       .  A
C3349      C3350   1.393       .  A
C3349     Br3356   1.922       .  S
C3350      C3351   1.409       .  A
C3350      H3355   1.083       .  S
C3351      C3352   1.408       .  A
C3352     Br3353   1.918       .  S
C3357      C3358   1.400       .  A
C3357      C3362   1.394       .  A
C3357      H3364   1.084       .  S
C3358      C3359   1.412       .  A
C3359      C3360   1.395       .  A
C3359     Br3366   1.921       .  S
C3360      C3361   1.405       .  A
C3360      H3365   1.083       .  S
C3361      C3362   1.418       .  A
C3362     Br3363   1.923       .  S
C3367      C3368   1.404       .  A
C3367      C3372   1.393       .  A
C3367      H3374   1.078       .  S
C3368      C3369   1.409       .  A
C3369      C3370   1.397       .  A
C3369     Br3376   1.921       .  S
C3370      C3371   1.405       .  A
C3370      H3375   1.084       .  S
C3371      C3372   1.407       .  A
C3372     Br3373   1.923       .  S
C3377      C3378   1.409       .  A
C3377      C3382   1.393       .  A
C3377      H3384   1.083       .  S
C3378      C3379   1.416       .  A
C3379      C3380   1.403       .  A
C3379     Br3386   1.921       .  S
C3380      C3381   1.402       .  A
C3380      H3385   1.083       .  S
C3381      C3382   1.403       .  A
C3387      C3388   1.400       .  A
C3387      C3392   1.400       .  A
C3387      H3394   1.083       .  S
C3388      C3389   1.410       .  A
C3389      C3390   1.399       .  A
C3389     Br3396   1.920       .  S
C3390      C3391   1.404       .  A
C3390      H3395   1.083       .  S
C3391      C3392   1.415       .  A
C3392     Br3393   1.921       .  S
C3397      C3398   1.411       .  A
C3397      C3402   1.398       .  A
C3397      H3404   1.083       .  S
C3398      C3399   1.420       .  A
C3399      C3400   1.397       .  A
C3399     Br3406   1.925       .  S
C3400      C3401   1.398       .  A
C3400      H3405   1.084       .  S
C3401      C3402   1.403       .  A
C3402     Br3403   1.917       .  S
C3407      C3408   1.408       .  A
C3407      C3412   1.399       .  A
C3407      H3414   1.084       .  S
C3408      C3409   1.409       .  A
C3409      C3410   1.401       .  A
C3409     Br3416   1.919       .  S
C3410      C3411   1.405       .  A
C3410      H3415   1.084       .  S
C3411      C3412   1.405       .  A
C3412     Br3413   1.916       .  S
C3417      C3418   1.406       .  A
C3417      C3422   1.396       .  A
C3417      H3424   1.084       .  S
C3418      C3419   1.410       .  A
C3419      C3420   1.402       .  A
C3419     Br3426   1.919       .  S
C3420      C3421   1.406       .  A
C3420      H3425   1.084       .  S
C3421      C3422   1.405       .  A
C3427      C3428   1.405       .  A
C3427      C3432   1.389       .  A
C3427      H3434   1.083       .  S
C3428      C3429   1.415       .  A
C3429      C3430   1.403       .  A
C3429     Br3436   1.921       .  S
C3430      C3431   1.406       .  A
C3430      H3435   1.083       .  S
C3431      C3432   1.407       .  A
C3437      C3438   1.391       .  A
C3437      C3442   1.392       .  A
C3437      H3444   1.083       .  S
C3438      C3439   1.410       .  A
C3439      C3440   1.406       .  A
C3439     Br3446   1.918       .  S
C3440      C3441   1.406       .  A
C3440      H3445   1.083       .  S
C3441      C3442   1.431       .  A
C3442     Br3443   1.930       .  S
C3447      C3448   1.404       .  A
C3447      C3452   1.402       .  A
C3447      H3454   1.083       .  S
C3448      C3449   1.407       .  A
C3449      C3450   1.402       .  A
C3449     Br3456   1.917       .  S
C3450      C3451   1.406       .  A
C3450      H3455   1.079       .  S
C3451      C3452   1.411       .  A
C3452     Br3453   1.920       .  S
C3457      C3458   1.408       .  A
C3457      C3462   1.405       .  A
C3457      H3464   1.083       .  S
C3458      C3459   1.422       .  A
C3459      C3460   1.402       .  A
C3459     Br3466   1.923       .  S
C3460      C3461   1.401       .  A
C3460      H3465   1.083       .  S
C3461      C3462   1.412       .  A
C3462     Br3463   1.920       .  S
C3467      C3468   1.405       .  A
C3467      C3472   1.402       .  A
C3467      H3474   1.084       .  S
C3468      C3469   1.416       .  A
C3469      C3470   1.406       .  A
C3469     Br3476   1.920       .  S
C3470      C3471   1.406       .  A
C3470      H3475   1.083       .  S
C3471      C3472   1.413       .  A
C3472     Br3473   1.919       .  S
C3477      C3478   1.400       .  A
C3477      C3482   1.398       .  A
C3477      H3484   1.084       .  S
C3478      C3479   1.410       .  A
C3479      C3480   1.404       .  A
C3479     Br3486   1.918       .  S
C3480      C3481   1.404       .  A
C3480      H3485   1.083       .  S
C3481      C3482   1.411       .  A
C3482     Br3483   1.919       .  S
C3487      C3488   1.402       .  A
C3487      C3492   1.404       .  A
C3487      H3494   1.083       .  S
C3488      C3489   1.418       .  A
C3489      C3490   1.401       .  A
C3489     Br3496   1.923       .  S
C3490      C3491   1.403       .  A
C3490      H3495   1.083       .  S
C3491      C3492   1.419       .  A
C3492     Br3493   1.922   1_554  S
C3497      C3498   1.405       .  A
C3497      C3502   1.403       .  A
C3497      H3504   1.083       .  S
C3498      C3499   1.425       .  A
C3499      C3500   1.399       .  A
C3499     Br3506   1.924   1_556  S
C3500      C3501   1.398       .  A
C3500      H3505   1.084       .  S
C3501      C3502   1.414       .  A
C3502     Br3503   1.920       .  S
C3507      C3508   1.405       .  A
C3507      C3512   1.393       .  A
C3507      H3514   1.084       .  S
C3508      C3509   1.411       .  A
C3509      C3510   1.397       .  A
C3509     Br3516   1.921       .  S
C3510      C3511   1.401       .  A
C3510      H3515   1.084       .  S
C3511      C3512   1.404       .  A
C3517      C3518   1.406       .  A
C3517      C3522   1.403       .  A
C3517      H3524   1.083       .  S
C3518      C3519   1.425       .  A
C3519      C3520   1.397       .  A
C3519     Br3526   1.923       .  S
C3520      C3521   1.396       .  A
C3520      H3525   1.083       .  S
C3521      C3522   1.412       .  A
C3522     Br3523   1.915       .  S
C3527      C3528   1.396       .  A
C3527      C3532   1.399       .  A
C3527      H3534   1.083       .  S
C3528      C3529   1.416       .  A
C3529      C3530   1.405       .  A
C3529     Br3536   1.922       .  S
C3530      C3531   1.405       .  A
C3530      H3535   1.083       .  S
C3531      C3532   1.426       .  A
C3532     Br3533   1.926       .  S
