geometry optimzed in LAMMPS
_audit_creation_date              2020-11-30 
_audit_creation_method            'lammps2cif' 
_symmetry_space_group_name_H-M    'P1' 
_symmetry_Int_Tables_number       1 
_symmetry_cell_setting            triclinic 
loop_ 
_symmetry_equiv_pos_as_xyz 
  x,y,z 
_cell_length_a                    40.4212097 
_cell_length_b                    40.48005666785959 
_cell_length_c                    18.15817365953077 
_cell_angle_alpha                 89.02186032547435 
_cell_angle_beta                  89.95018053089402 
_cell_angle_gamma                 120.25425466295668 
loop_ 
_atom_site_label 
_atom_site_type_symbol 
_atom_site_fract_x 
_atom_site_fract_y 
_atom_site_fract_z 
_atom_site_charge 
C1          C  0.81729293  0.23711233  0.89151737     0.80100
N2          N  0.77957480  0.21757487  0.87019170    -0.78200
C3          C  0.74710194  0.18083921  0.46144370     0.82500
N4          N  0.75047081  0.16327164  0.52318813    -0.78200
C5          C  0.77962314  0.18168193  0.57065605     0.82600
N6          N  0.83592242  0.21756068  0.90190268    -0.79900
C7          C  0.17875392  0.42104211  0.46263739     0.80100
N8          N  0.16078013  0.38942620  0.50758001    -0.78200
C9          C  0.18100321  0.37638305  0.54550322     0.82500
N10         N  0.25723564  0.41454796  0.01084378    -0.78200
C11         C  0.27607098  0.44061950  0.95639913     0.82600
N12         N  0.25677917  0.45472090  0.91635933    -0.79900
C13         C  0.49116087  0.21616785  0.97545344     0.80100
N14         N  0.46243808  0.20531818  0.02524124    -0.78200
C15         C  0.38397672  0.17414273  0.37306147     0.82500
N16         N  0.40225926  0.21108968  0.35070600    -0.78200
C17         C  0.44074435  0.23182997  0.34211587     0.82600
N18         N  0.46188616  0.21440252  0.35652527    -0.79900
C19         C  0.26931599  0.79600564  0.36017912     0.80100
N20         N  0.25347828  0.75738692  0.37561859    -0.78200
C21         C  0.21360678  0.74320838  0.98873786     0.82500
N22         N  0.20726058  0.76372062  0.03910615    -0.78200
C23         C  0.21321837  0.79335584  0.40687585     0.82600
N24         N  0.24880276  0.81316049  0.37704948    -0.79900
C25         C  0.79372786  0.52688911  0.33724164     0.80100
N26         N  0.80967437  0.56525489  0.32666448    -0.78200
C27         C  0.78922574  0.58284301  0.33876160     0.82500
N28         N  0.80194305  0.56192488  0.01100817    -0.78200
C29         C  0.77776259  0.52849498  0.97908603     0.82600
N30         N  0.79279409  0.51253166  0.93266166    -0.79900
C31         C  0.58706167  0.80840260  0.92470795     0.80100
N32         N  0.61632880  0.81702081  0.97137243    -0.78200
C33         C  0.63013667  0.79323709  0.98342511     0.82500
N34         N  0.56543310  0.72616728  0.49708764    -0.78200
C35         C  0.54402948  0.72276463  0.43679948     0.82600
N36         N  0.53346103  0.74984095  0.42307750    -0.79900
O37         O  0.97676882  0.00180650  0.25137192    -0.88500
C38         C  0.91882534  0.93935015  0.56009106     0.87500
Mg39       Mg  0.01324506  0.06218621  0.24795617     1.58100
O40         O  0.02058396  0.93113842  0.29822945    -0.88200
O41         O  0.95739092  0.95401219  0.33054240    -0.75500
C42         C  0.13199522  0.07469611  0.62403675     0.92600
O43         O  0.93621841  0.01929781  0.62133078    -0.75400
O44         O  0.11610551  0.09344168  0.64427374    -0.82900
Mg45       Mg  0.89323647  0.96410926  0.68502764     1.58000
C46         C  0.12664839  0.93667414  0.32091936     0.92500
O47         O  0.89882146  0.93201307  0.19346408    -0.81100
H48         H  0.00837714  0.91808323  0.40532656    -0.06500
C49         C  0.03599088  0.00488432  0.53873355     0.87500
O50         O  0.04654310  0.05839242  0.34951889    -0.75600
O51         O  0.91499288  0.93346067  0.62739740    -0.88400
O52         O  0.09055713  0.91699319  0.31253991    -0.81200
C53         C  0.91638065  0.84316827  0.52818746     0.92600
C54         C  0.88084300  0.89772679  0.21826939     0.92500
Mg55       Mg  0.11571382  0.01020470  0.32358594     1.58000
O56         O  0.11487835  0.03861781  0.62976874    -0.81100
O57         O  0.06141082  0.96361075  0.38427114    -0.75400
O58         O  0.89764841  0.84885774  0.57837483    -0.81200
O59         O  0.86979890  0.99721872  0.74068759    -0.82900
O60         O  0.10790220  0.13074116  0.26412439    -0.81200
C61         C  0.02905748  0.93654636  0.36403665     0.86900
O62         O  0.08986748  0.04569502  0.30813088    -0.88400
O63         O  0.02971646  0.98029296  0.58657171    -0.88500
O64         O  0.04240782  0.03789753  0.55517058    -0.75500
Mg65       Mg  0.96155392  0.90679416  0.27044045     1.58000
O66         O  0.95187493  0.86566556  0.51715093    -0.82900
H67         H  0.95718068  0.00293266  0.35191107    -0.06600
O68         O  0.98989058  0.04155023  0.68105640    -0.88200
H69         H  0.98491971  0.06843621  0.59196589    -0.06500
H70         H  0.08483274  0.05357728  0.41500798    -0.06700
C71         C  0.97118669  0.04437418  0.63014119     0.86900
C72         C  0.96316176  0.98694571  0.31226425     0.87500
C73         C  0.07441417  0.05254028  0.35982238     0.87500
H74         H  0.03425400  0.99744500  0.48145553    -0.06600
O75         O  0.94584546  0.93934240  0.52451163    -0.75700
Mg76       Mg  0.05114756  0.06661462  0.66607504     1.58000
H77         H  0.89949249  0.94605492  0.53120419    -0.06600
C78         C  0.88774947  0.03219245  0.75813463     0.92500
O79         O  0.05177309  0.12613818  0.24293761    -0.82900
C80         C  0.08740570  0.14613842  0.25511535     0.92600
O81         O  0.89823505  0.88073203  0.24143912    -0.82900
Mg82       Mg  0.99177521  0.92415209  0.55378524     1.58200
O83         O  0.92379428  0.05002858  0.76887946    -0.81200
O84         O  0.14319978  0.97271800  0.32864816    -0.82900
C85         C  0.00251749  0.47883751  0.15378379    -0.02600
C86         C  0.52649174  0.99778345  0.13412355    -0.02600
C87         C  0.52832832  0.50112151  0.14817369    -0.02600
C88         C  0.76261213  0.78466905  0.13842058    -0.18000
C89         C  0.67729543  0.73520511  0.64819673    -0.20100
C90         C  0.71117396  0.79336792  0.09062633     0.20500
C91         C  0.72881738  0.83023784  0.12081874    -0.03100
C92         C  0.76392636  0.84458876  0.15804298    -0.06100
C93         C  0.78144070  0.82206818  0.16512217     0.20800
C94         C  0.78262489  0.88233749  0.18404881     0.19000
C95         C  0.76509928  0.90456784  0.17679416    -0.17600
C96         C  0.73022335  0.89025976  0.14042579    -0.19800
C97         C  0.71243977  0.85356685  0.11057825     0.20400
C98         C  0.67946871  0.84052600  0.06804833    -0.32800
C99         C  0.66269796  0.80460246  0.03439508     0.01100
C100        C  0.62281921  0.74103354  0.60835746    -0.24200
C101        C  0.81862276  0.83832496  0.19366463    -0.28700
C102        C  0.83868187  0.87707233  0.21287232     0.06800
C103        C  0.81972130  0.89818487  0.21180181    -0.27400
H104        H  0.73066098  0.73808832  0.67174205     0.11500
H105        H  0.66602590  0.70808558  0.62085122     0.12700
H106        H  0.77902997  0.93352721  0.19690047     0.11700
H107        H  0.71780956  0.90838844  0.13347757     0.11000
H108        H  0.66770988  0.85911696  0.05913594     0.16400
H109        H  0.61303502  0.71575786  0.57539476     0.12300
H110        H  0.83316405  0.82197036  0.19428729     0.15100
H111        H  0.83498417  0.92797089  0.22737279     0.14900
C112        C  0.48917308  0.84675821  0.96937442    -0.18000
C113        C  0.48128613  0.87412669  0.99850783    -0.20100
C114        C  0.51107927  0.91137644  0.01364812     0.20500
C115        C  0.54886119  0.92151107  0.99520420    -0.03100
C116        C  0.55678317  0.89418811  0.96371170    -0.06100
C117        C  0.52699668  0.85612474  0.95316257     0.20800
C118        C  0.59482058  0.90449133  0.94665929     0.19000
C119        C  0.62437234  0.94219312  0.95824549    -0.17600
C120        C  0.61657327  0.96879799  0.99043350    -0.19800
C121        C  0.57900150  0.95846270  0.01107600     0.20400
C122        C  0.57162972  0.98380698  0.05076118    -0.32800
C123        C  0.53419800  0.97373004  0.07512477     0.01100
C124        C  0.50389996  0.93785275  0.05018374    -0.24200
C125        C  0.53589531  0.82783030  0.93139659    -0.28700
C126        C  0.57431818  0.83746715  0.91951016     0.06800
C127        C  0.60309658  0.87644893  0.92322166    -0.27400
H128        H  0.43186982  0.80540380  0.47769064     0.11500
H129        H  0.45190055  0.86565196  0.01188869     0.12700
H130        H  0.65379563  0.95071634  0.94511174     0.11700
H131        H  0.64021626  0.99725626  0.00118826     0.11000
H132        H  0.59622932  0.01083917  0.06446304     0.16400
H133        H  0.47443437  0.92914152  0.06296351     0.12300
H134        H  0.47488623  0.77823379  0.45946569     0.15100
H135        H  0.63276963  0.88442892  0.91424619     0.14900
C136        C  0.57356039  0.64171084  0.17756878    -0.18000
C137        C  0.57315079  0.67202064  0.21336004    -0.20100
C138        C  0.55293833  0.66569634  0.28007033     0.20500
C139        C  0.53286432  0.62814755  0.31045606    -0.03100
C140        C  0.53316147  0.59740485  0.27383420    -0.06100
C141        C  0.55368237  0.60425359  0.20737674     0.20800
C142        C  0.51332649  0.55996921  0.30419170     0.19000
C143        C  0.49361096  0.55367536  0.37163806    -0.17600
C144        C  0.49367687  0.58403054  0.40824850    -0.19800
C145        C  0.51321143  0.62142570  0.37823549     0.20400
C146        C  0.51455555  0.65233354  0.41601412    -0.32800
C147        C  0.53485561  0.69009343  0.38695737     0.01100
C148        C  0.55358619  0.69634500  0.31814416    -0.24200
C149        C  0.55368827  0.57364063  0.17117309    -0.28700
C150        C  0.53226494  0.53502680  0.19776706     0.06800
C151        C  0.51310190  0.52934123  0.26670552    -0.27400
H152        H  0.58946656  0.64762171  0.12625234     0.11500
H153        H  0.58894788  0.70052624  0.18904602     0.12700
H154        H  0.47820497  0.52528665  0.39627298     0.11700
H155        H  0.57241433  0.62171785  0.96417232     0.11000
H156        H  0.57983100  0.68572063  0.95852150     0.16400
H157        H  0.57051116  0.72532560  0.29642633     0.12300
H158        H  0.56969155  0.57997268  0.11989019     0.15100
H159        H  0.49777943  0.50164002  0.29227991     0.14900
C160        C  0.90643763  0.70862795  0.35654222    -0.18000
C161        C  0.92425719  0.74549440  0.38482306    -0.20100
C162        C  0.90221536  0.76035448  0.41318848     0.20500
C163        C  0.86197228  0.73895586  0.40908962    -0.03100
C164        C  0.84404955  0.70207689  0.37938119    -0.06100
C165        C  0.86634954  0.68631477  0.35550076     0.20800
C166        C  0.86502618  0.66646782  0.11517121     0.19000
C167        C  0.84559173  0.68027840  0.15709149    -0.17600
C168        C  0.86530075  0.71700399  0.18520457    -0.19800
C169        C  0.90478240  0.74015722  0.17271333     0.20400
C170        C  0.92431983  0.77732631  0.19893954    -0.32800
C171        C  0.89734441  0.80877148  0.48272380     0.01100
C172        C  0.91962994  0.79538551  0.44885854    -0.24200
C173        C  0.84817139  0.64787132  0.33517179    -0.28700
C174        C  0.80803514  0.62503537  0.33928423     0.06800
C175        C  0.84498726  0.63054699  0.08394717    -0.27400
H176        H  0.92397538  0.69718774  0.33740204     0.11500
H177        H  0.95525399  0.76184953  0.38690952     0.12700
H178        H  0.81502460  0.66288057  0.16723337     0.11700
H179        H  0.84963606  0.72735683  0.21651562     0.11000
H180        H  0.90861380  0.78792654  0.22948220     0.16400
H181        H  0.95055889  0.81120280  0.45373293     0.12300
H182        H  0.86536999  0.63520449  0.32113135     0.15100
H183        H  0.81436823  0.61357528  0.09395632     0.14900
C184        C  0.60550310  0.48450201  0.94717553    -0.18000
C185        C  0.63905272  0.48441510  0.92573381    -0.20100
C186        C  0.67075753  0.49809949  0.97288591     0.20500
C187        C  0.66814089  0.51233253  0.04202027    -0.03100
C188        C  0.63536405  0.51480602  0.06145618    -0.06100
C189        C  0.60335854  0.49986413  0.01493769     0.20800
C190        C  0.63442124  0.53146147  0.12849111     0.19000
C191        C  0.66550230  0.54444794  0.17650089    -0.17600
C192        C  0.69681615  0.54020349  0.15915820    -0.19800
C193        C  0.69838735  0.52429898  0.09205028     0.20400
C194        C  0.73067329  0.52193733  0.07324475    -0.32800
C195        C  0.73640757  0.51257563  0.00138052     0.01100
C196        C  0.70548862  0.49939957  0.95169113    -0.24200
C197        C  0.56938175  0.49889488  0.03871252    -0.28700
C198        C  0.56741290  0.51418989  0.10761608     0.06800
C199        C  0.60150118  0.53254703  0.14929858    -0.27400
H200        H  0.58127937  0.47277427  0.91035545     0.11500
H201        H  0.60251948  0.49858732  0.30749165     0.12700
H202        H  0.66516537  0.55700593  0.22853096     0.11700
H203        H  0.72018075  0.55001589  0.19782210     0.11000
H204        H  0.75362040  0.53154173  0.11294480     0.16400
H205        H  0.66702178  0.50445405  0.30988848     0.12300
H206        H  0.54397450  0.48412994  0.00546687     0.15100
H207        H  0.60085213  0.54317537  0.20331050     0.14900
C208        C  0.90327812  0.50697289  0.39207538    -0.18000
C209        C  0.93469277  0.50421464  0.36631728    -0.20100
C210        C  0.93931617  0.49997995  0.29083427     0.20500
C211        C  0.91166404  0.49854685  0.24137382    -0.03100
C212        C  0.87979042  0.50111707  0.26735988    -0.06100
C213        C  0.87560753  0.50559245  0.34308993     0.20800
C214        C  0.85275612  0.50036984  0.21706091     0.19000
C215        C  0.85779322  0.49716270  0.14155406    -0.17600
C216        C  0.88923046  0.49481370  0.11605974    -0.19800
C217        C  0.91629221  0.49549406  0.16550690     0.20400
C218        C  0.94742115  0.49242856  0.13997118    -0.32800
C219        C  0.97373842  0.49001193  0.18854122     0.01100
C220        C  0.97073424  0.49684641  0.26405207    -0.24200
C221        C  0.84487742  0.51029283  0.36764800    -0.28700
C222        C  0.81800884  0.51008448  0.31742578     0.06800
C223        C  0.82212877  0.50458157  0.24242104    -0.27400
H224        H  0.94087376  0.59966741  0.74255022     0.11500
H225        H  0.95535599  0.50530225  0.40563290     0.12700
H226        H  0.83759342  0.49687283  0.10197670     0.11700
H227        H  0.89233279  0.49238994  0.05741556     0.11000
H228        H  0.94990942  0.48961020  0.08129514     0.16400
H229        H  0.99276759  0.50051561  0.30210717     0.12300
H230        H  0.88324216  0.57517693  0.81862584     0.15100
H231        H  0.80275710  0.50606917  0.20297011     0.14900
C232        C  0.23832504  0.94064372  0.20612706    -0.18000
C233        C  0.25195564  0.92177165  0.16222476    -0.20100
C234        C  0.23103145  0.88177782  0.15649803     0.20500
C235        C  0.19708810  0.86055575  0.19872712    -0.03100
C236        C  0.18316032  0.87959359  0.24251412    -0.06100
C237        C  0.20338526  0.91989287  0.24474295     0.20800
C238        C  0.14765232  0.85839177  0.27986154     0.19000
C239        C  0.12775154  0.81834441  0.27747197    -0.17600
C240        C  0.14189772  0.79948529  0.23542409    -0.19800
C241        C  0.17584884  0.82040732  0.19405299     0.20400
C242        C  0.18777584  0.80189150  0.14540997    -0.32800
C243        C  0.22027225  0.82279109  0.09946774     0.01100
C244        C  0.24244778  0.86278129  0.10705478    -0.24200
C245        C  0.18679910  0.93873365  0.28033071    -0.28700
C246        C  0.14956412  0.91773395  0.31080289     0.06800
C247        C  0.13119894  0.87758351  0.31397801    -0.27400
H248        H  0.25434880  0.97160642  0.20744018     0.11500
H249        H  0.27828000  0.93857690  0.13094539     0.12700
H250        H  0.10059379  0.80163283  0.30623767     0.11700
H251        H  0.12545275  0.76856692  0.23293719     0.11000
H252        H  0.17059171  0.77106862  0.14140514     0.16400
H253        H  0.26786881  0.87922397  0.07311152     0.12300
H254        H  0.20114987  0.96969606  0.27731737     0.15100
H255        H  0.10269658  0.86118664  0.33796794     0.14900
C256        C  0.09513737  0.61988797  0.92597823    -0.18000
C257        C  0.06476220  0.58381853  0.94999625    -0.20100
C258        C  0.06511586  0.56855492  0.02017569     0.20500
C259        C  0.09697881  0.59029595  0.06561323    -0.03100
C260        C  0.12810458  0.62626528  0.04073635    -0.06100
C261        C  0.12713352  0.64158256  0.97089045     0.20800
C262        C  0.15962910  0.64745961  0.08714115     0.19000
C263        C  0.15998775  0.63275368  0.15744409    -0.17600
C264        C  0.12917578  0.59785156  0.18217354    -0.19800
C265        C  0.09736171  0.57673671  0.13713034     0.20400
C266        C  0.06600887  0.54241468  0.16331405    -0.32800
C267        C  0.03495711  0.51775983  0.11767957     0.01100
C268        C  0.03436280  0.53238411  0.04605444    -0.24200
C269        C  0.15725650  0.67882233  0.94914524    -0.28700
C270        C  0.18865657  0.70045950  0.99618790     0.06800
C271        C  0.18954282  0.68375106  0.06427538    -0.27400
H272        H  0.09347142  0.63089617  0.87216746     0.11500
H273        H  0.04074718  0.56802527  0.91376662     0.12700
H274        H  0.18389410  0.64856040  0.19392288     0.11700
H275        H  0.13036661  0.58720259  0.23663421     0.11000
H276        H  0.06639290  0.53444216  0.22044325     0.16400
H277        H  0.00993114  0.51647326  0.01103835     0.12300
H278        H  0.16226913  0.67427326  0.33260936     0.15100
H279        H  0.21255744  0.70041981  0.10211567     0.14900
C280        C  0.38459624  0.94061106  0.18214885    -0.18000
C281        C  0.34916543  0.91128477  0.20835928    -0.20100
C282        C  0.34661697  0.88052943  0.24989069     0.20500
C283        C  0.38009150  0.87914870  0.26483160    -0.03100
C284        C  0.41619154  0.90890873  0.23739980    -0.06100
C285        C  0.41831110  0.93974728  0.19633313     0.20800
C286        C  0.44987337  0.90752199  0.24991115     0.19000
C287        C  0.44701064  0.87644685  0.29159625    -0.17600
C288        C  0.41138472  0.84736298  0.32007607    -0.19800
C289        C  0.37744544  0.84817649  0.30695738     0.20400
C290        C  0.34116408  0.81925322  0.33585406    -0.32800
C291        C  0.30760082  0.82114687  0.32240646     0.01100
C292        C  0.31109338  0.85166011  0.27761036    -0.24200
C293        C  0.45370944  0.96891515  0.16816094    -0.28700
C294        C  0.48846330  0.96854768  0.17831462     0.06800
C295        C  0.48540522  0.93665903  0.21924676    -0.27400
H296        H  0.38557199  0.96398159  0.15031749     0.11500
H297        H  0.32369526  0.91280549  0.19646134     0.12700
H298        H  0.47240394  0.87462680  0.30242426     0.11700
H299        H  0.41037899  0.82405931  0.35210168     0.11000
H300        H  0.33935211  0.79636101  0.37058662     0.16400
H301        H  0.28584145  0.85363815  0.26568598     0.12300
H302        H  0.45296904  0.99078166  0.13453184     0.15100
H303        H  0.51060652  0.93395727  0.22530158     0.14900
C304        C  0.24216649  0.06241172  0.55750209    -0.18000
C305        C  0.27555267  0.07409815  0.51641290    -0.20100
C306        C  0.29167785  0.10813853  0.47442356     0.20500
C307        C  0.27370240  0.13038723  0.47297273    -0.03100
C308        C  0.23997914  0.11860199  0.51447755    -0.06100
C309        C  0.22438808  0.08454999  0.55694124     0.20800
C310        C  0.22184095  0.14075467  0.51336780     0.19000
C311        C  0.23789370  0.17463293  0.47067788    -0.17600
C312        C  0.27156330  0.18648480  0.42983363    -0.19800
C313        C  0.28971251  0.16464220  0.43098752     0.20400
C314        C  0.32435419  0.17717438  0.39320473    -0.32800
C315        C  0.34362117  0.15626899  0.39797178     0.01100
C316        C  0.32627349  0.12102366  0.43633168    -0.24200
C317        C  0.19064471  0.07253246  0.59669546    -0.28700
C318        C  0.17124765  0.09326752  0.59335814     0.06800
C319        C  0.18746883  0.12798356  0.55323680    -0.27400
H320        H  0.23017805  0.03598347  0.58959557     0.11500
H321        H  0.28897615  0.05671711  0.51808481     0.12700
H322        H  0.22440672  0.19194541  0.46883193     0.11700
H323        H  0.28357897  0.21290521  0.39772151     0.11000
H324        H  0.33714349  0.20419578  0.36293139     0.16400
H325        H  0.41616991  0.16151899  0.12231810     0.12300
H326        H  0.17859123  0.04591553  0.62829797     0.15100
H327        H  0.17254288  0.14392926  0.55020066     0.14900
C328        C  0.51365023  0.11057388  0.89940067    -0.18000
C329        C  0.51607698  0.07834061  0.92253090    -0.20100
C330        C  0.51877014  0.07100099  0.99781222     0.20500
C331        C  0.52024835  0.09746434  0.04938550    -0.03100
C332        C  0.52023140  0.13112800  0.02569660    -0.06100
C333        C  0.51549184  0.13726011  0.95057996     0.20800
C334        C  0.52351125  0.15794876  0.07795660     0.19000
C335        C  0.52594456  0.15084743  0.15305123    -0.17600
C336        C  0.52403703  0.11693033  0.17649262    -0.19800
C337        C  0.52096593  0.09005468  0.12515401     0.20400
C338        C  0.51906160  0.05616173  0.14901687    -0.32800
C339        C  0.52080830  0.03041887  0.09926335     0.01100
C340        C  0.52019276  0.03809743  0.02273849    -0.24200
C341        C  0.51039468  0.16853546  0.92944802    -0.28700
C342        C  0.51228821  0.19468607  0.98257381     0.06800
C343        C  0.52168276  0.19022856  0.05538539    -0.27400
H344        H  0.51023435  0.11455535  0.84133714     0.11500
H345        H  0.51494523  0.05866591  0.88153380     0.12700
H346        H  0.52808803  0.17099633  0.19397767     0.11700
H347        H  0.52532692  0.11188895  0.23492624     0.11000
H348        H  0.51851001  0.05066047  0.20781475     0.16400
H349        H  0.52065194  0.01875274  0.98290468     0.12300
H350        H  0.50234393  0.17084766  0.87353013     0.15100
H351        H  0.52261801  0.20961362  0.09700401     0.14900
C352        C  0.55804733  0.39757811  0.22761842    -0.18000
C353        C  0.54606683  0.36014770  0.25218588    -0.20100
C354        C  0.50857381  0.33626217  0.27856823     0.20500
C355        C  0.48351129  0.35113769  0.28223082    -0.03100
C356        C  0.49575127  0.38912898  0.25765391    -0.06100
C357        C  0.53280797  0.41201840  0.22887561     0.20800
C358        C  0.47046414  0.40361960  0.25930295     0.19000
C359        C  0.43328687  0.38019052  0.28782535    -0.17600
C360        C  0.42110878  0.34266522  0.31207972    -0.19800
C361        C  0.44586577  0.32776042  0.30843884     0.20400
C362        C  0.43324065  0.28963600  0.32907065    -0.32800
C363        C  0.45741912  0.27370159  0.32388063     0.01100
C364        C  0.49548000  0.29769342  0.29965610    -0.24200
C365        C  0.54376045  0.44828857  0.19852818    -0.28700
C366        C  0.51854285  0.46350174  0.19534218     0.06800
C367        C  0.48202114  0.44042791  0.22936784    -0.27400
H368        H  0.58693702  0.41501568  0.20605715     0.11500
H369        H  0.56595225  0.34966175  0.24919141     0.12700
H370        H  0.41331504  0.39060750  0.28999945     0.11700
H371        H  0.48028944  0.38998030  0.98908568     0.11000
H372        H  0.48381612  0.33103453  0.99218921     0.16400
H373        H  0.51449705  0.28620942  0.29540659     0.12300
H374        H  0.57192326  0.46300190  0.17438811     0.15100
H375        H  0.46115045  0.44973267  0.22695359     0.14900
C376        C  0.16487427  0.23057480  0.69511962    -0.18000
C377        C  0.18323309  0.26622022  0.65905280    -0.20100
C378        C  0.16353082  0.28592310  0.64515903     0.20500
C379        C  0.16343888  0.30155736  0.16652883    -0.03100
C380        C  0.14446897  0.26505095  0.20102522    -0.06100
C381        C  0.12655878  0.21412273  0.71816953     0.20800
C382        C  0.10410420  0.24415350  0.20477063     0.19000
C383        C  0.08320117  0.26078385  0.17771936    -0.17600
C384        C  0.10202641  0.29697862  0.14341070    -0.19800
C385        C  0.14205646  0.31713925  0.13567144     0.20400
C386        C  0.16086658  0.35145235  0.09410889    -0.32800
C387        C  0.20073177  0.37010459  0.08265729     0.01100
C388        C  0.18145209  0.32099292  0.60672379    -0.24200
C389        C  0.10743786  0.17744679  0.75050279    -0.28700
C390        C  0.10641204  0.18839062  0.25094677     0.06800
C391        C  0.08532158  0.20607061  0.23052447    -0.27400
H392        H  0.18048946  0.21559814  0.70400012     0.11500
H393        H  0.21271806  0.27814158  0.64106631     0.12700
H394        H  0.05218521  0.24518697  0.18056697     0.11700
H395        H  0.08516931  0.30861182  0.12065197     0.11000
H396        H  0.14425251  0.36243240  0.06756198     0.16400
H397        H  0.21081765  0.33272213  0.58804408     0.12300
H398        H  0.12259464  0.16184671  0.75709257     0.15100
H399        H  0.05431496  0.18939345  0.22902011     0.14900
C400        C  0.36899017  0.39954404  0.99689621    -0.18000
C401        C  0.40426754  0.40762510  0.02638628    -0.20100
C402        C  0.43346967  0.44561720  0.03636786     0.20500
C403        C  0.42764652  0.47560422  0.01249914    -0.03100
C404        C  0.39182270  0.46749726  0.98303175    -0.06100
C405        C  0.36218726  0.42929500  0.97688256     0.20800
C406        C  0.38501458  0.49756506  0.96367342     0.19000
C407        C  0.41541856  0.53545904  0.96834454    -0.17600
C408        C  0.45121957  0.54341274  0.99548259    -0.19800
C409        C  0.45716701  0.51367413  0.02024210     0.20400
C410        C  0.49128600  0.52153066  0.05615926    -0.32800
C411        C  0.49563439  0.49202192  0.09035173     0.01100
C412        C  0.46754172  0.45395403  0.07283901    -0.24200
C413        C  0.32551400  0.42143646  0.95594988    -0.28700
C414        C  0.31697039  0.45102629  0.94484714     0.06800
C415        C  0.34747142  0.48920979  0.94506890    -0.27400
H416        H  0.34650908  0.36995494  0.99232454     0.11500
H417        H  0.40822992  0.38410610  0.04369914     0.12700
H418        H  0.41122016  0.55906375  0.95297573     0.11700
H419        H  0.47372802  0.57294852  0.00014903     0.11000
H420        H  0.51319837  0.55093937  0.05984137     0.16400
H421        H  0.47128313  0.43027346  0.08943413     0.12300
H422        H  0.30241927  0.39189210  0.95561778     0.15100
H423        H  0.34147795  0.51228322  0.93734149     0.14900
C424        C  0.11531933  0.46090183  0.18202613    -0.18000
C425        C  0.14190726  0.45674904  0.22492151    -0.20100
C426        C  0.13538838  0.44809152  0.30063789     0.20500
C427        C  0.10136191  0.44338759  0.33294045    -0.03100
C428        C  0.07476161  0.44839475  0.28963250    -0.06100
C429        C  0.08180550  0.45705323  0.21394662     0.20800
C430        C  0.04097080  0.44426029  0.32176767     0.19000
C431        C  0.03370399  0.43406321  0.39698869    -0.17600
C432        C  0.05968172  0.42854124  0.43952094    -0.19800
C433        C  0.09370397  0.43327932  0.40819430     0.20400
C434        C  0.11975339  0.42732153  0.45029540    -0.32800
C435        C  0.15414297  0.43229766  0.41900631     0.01100
C436        C  0.16182245  0.44323745  0.34401096    -0.24200
C437        C  0.05591770  0.46284356  0.17165155    -0.28700
C438        C  0.02412190  0.46346948  0.20391100     0.06800
C439        C  0.01549137  0.45096140  0.27862052    -0.27400
H440        H  0.12131057  0.46771357  0.12385941     0.11500
H441        H  0.16755522  0.46015274  0.19866083     0.12700
H442        H  0.00801940  0.43060958  0.42315320     0.11700
H443        H  0.10812039  0.46357593  0.98937914     0.11000
H444        H  0.16402196  0.45454231  0.98879326     0.16400
H445        H  0.18747680  0.44620116  0.31857727     0.12300
H446        H  0.06210413  0.46974785  0.11346557     0.15100
H447        H  0.98894937  0.44557937  0.30351338     0.14900
C448        C  0.75574105  0.05831246  0.67234162    -0.18000
C449        C  0.77168187  0.03684530  0.69899847    -0.20100
C450        C  0.80929521  0.05518352  0.72548258     0.20500
C451        C  0.83009809  0.09537655  0.73012172    -0.03100
C452        C  0.81387154  0.11701218  0.70389659    -0.06100
C453        C  0.77711030  0.09841574  0.67221990     0.20800
C454        C  0.89759145  0.16259915  0.96004569     0.19000
C455        C  0.93544611  0.18422918  0.98450833    -0.17600
C456        C  0.95370148  0.16619163  0.01689194    -0.19800
C457        C  0.93443495  0.12623113  0.02501955     0.20400
C458        C  0.95160632  0.10810923  0.06194165    -0.32800
C459        C  0.86644961  0.05308793  0.76065259     0.01100
C460        C  0.82742706  0.03426319  0.74187013    -0.24200
C461        C  0.76378596  0.12014606  0.63542586    -0.28700
C462        C  0.78715395  0.16014163  0.62872444     0.06800
C463        C  0.87822172  0.18063766  0.93280964    -0.27400
H464        H  0.72737137  0.04357920  0.64878201     0.11500
H465        H  0.75525338  0.00595468  0.69559005     0.12700
H466        H  0.95062757  0.21518054  0.98024065     0.11700
H467        H  0.98261225  0.18355173  0.03697031     0.11000
H468        H  0.98010237  0.12524883  0.08412976     0.16400
H469        H  0.81187776  0.00357507  0.73446946     0.12300
H470        H  0.73673312  0.10564770  0.60678919     0.15100
H471        H  0.89310310  0.21161923  0.93035339     0.14900
C472        C  0.88157278  0.35398946  0.13832963    -0.18000
C473        C  0.85328693  0.32275687  0.10022848    -0.20100
C474        C  0.85852051  0.31782119  0.02568816     0.20500
C475        C  0.89257620  0.34518543  0.98905255    -0.03100
C476        C  0.92084447  0.37760780  0.02731832    -0.06100
C477        C  0.91539791  0.38147315  0.10239129     0.20800
C478        C  0.95485712  0.40549719  0.99125464     0.19000
C479        C  0.96059679  0.39964042  0.91721926    -0.17600
C480        C  0.93335172  0.36675364  0.88018971    -0.19800
C481        C  0.89900558  0.33937306  0.91535329     0.20400
C482        C  0.87192529  0.30542334  0.87983312    -0.32800
C483        C  0.83787839  0.27767517  0.91636843     0.01100
C484        C  0.83123579  0.28488831  0.98878584    -0.24200
C485        C  0.94361941  0.41275442  0.14075979    -0.28700
C486        C  0.97657633  0.44309340  0.10530557     0.06800
C487        C  0.98233316  0.43836939  0.02995627    -0.27400
H488        H  0.87690479  0.35670428  0.19615488     0.11500
H489        H  0.82760135  0.30197782  0.12961497     0.12700
H490        H  0.98637457  0.42026915  0.88806228     0.11700
H491        H  0.84356532  0.38053312  0.47477905     0.11000
H492        H  0.81028101  0.30875604  0.46820115     0.16400
H493        H  0.80632846  0.26308596  0.01876769     0.12300
H494        H  0.93890550  0.41457411  0.19897703     0.15100
H495        H  0.00807977  0.45940081  0.00182473     0.14900
C496        C  0.68437401  0.14299234  0.21359380    -0.18000
C497        C  0.65521769  0.11588239  0.16908848    -0.20100
C498        C  0.62493782  0.08181959  0.19983276     0.20500
C499        C  0.62396770  0.07511045  0.27603733    -0.03100
C500        C  0.65365199  0.10245278  0.32114573    -0.06100
C501        C  0.68409620  0.13668780  0.28997652     0.20800
C502        C  0.65288408  0.09540476  0.39733986     0.19000
C503        C  0.62235188  0.06155600  0.42813716    -0.17600
C504        C  0.59262857  0.03511376  0.38387033    -0.19800
C505        C  0.59306813  0.04145232  0.30741262     0.20400
C506        C  0.56269573  0.01522472  0.26257056    -0.32800
C507        C  0.56281318  0.02109989  0.18512752     0.01100
C508        C  0.59515447  0.05507493  0.15564276    -0.24200
C509        C  0.71386569  0.16356476  0.33537244    -0.28700
C510        C  0.71394330  0.15626765  0.41166238     0.06800
C511        C  0.68285905  0.12194567  0.44141413    -0.27400
H512        H  0.70725579  0.16887353  0.18809934     0.11500
H513        H  0.65629456  0.12167565  0.11038859     0.12700
H514        H  0.63298604  0.06646358  0.94909239     0.11700
H515        H  0.56932708  0.00958374  0.40956392     0.11000
H516        H  0.53857956  0.99140388  0.28975605     0.16400
H517        H  0.59580347  0.06239754  0.09778972     0.11300
H518        H  0.73748719  0.18928962  0.31097702     0.15100
H519        H  0.69930969  0.12214345  0.93301289     0.14900
C520        C  0.80461329  0.23746166  0.49497969     0.80100
N521        N  0.77495042  0.21843518  0.44615884    -0.78200
C522        C  0.76165135  0.17873759  0.85870673     0.82500
N523        N  0.78134987  0.16006478  0.87091257    -0.78200
C524        C  0.81854583  0.17935498  0.89220932     0.82600
N525        N  0.80613665  0.21847698  0.55588184    -0.79900
C526        C  0.21880948  0.44209465  0.93305427     0.80100
N527        N  0.20113442  0.41564926  0.98852851    -0.78200
C528        C  0.22023319  0.40180932  0.02764393     0.82500
N529        N  0.21968855  0.39558248  0.53932261    -0.78200
C530        C  0.23873196  0.42734865  0.49606373     0.82600
N531        N  0.21819324  0.44023620  0.45675661    -0.79900
C532        C  0.44339712  0.17616609  0.37678013     0.80100
N533        N  0.40472596  0.15684216  0.38590763    -0.78200
C534        C  0.44421222  0.22508276  0.03438758     0.82500
N535        N  0.45456937  0.25656258  0.99177766    -0.78200
C536        C  0.48292997  0.26858112  0.94015861     0.82600
N537        N  0.50184347  0.24830973  0.93176140    -0.79900
C538        C  0.26690909  0.80144684  0.94279345     0.80100
N539        N  0.24411339  0.76209771  0.94037961    -0.78200
C540        C  0.21687530  0.73695563  0.40523121     0.82500
N541        N  0.19752985  0.75539382  0.42024174    -0.78200
C542        C  0.22942639  0.80221091  0.04276358     0.82600
N543        N  0.25899505  0.82093771  0.99394418    -0.79900
C544        C  0.83216389  0.53135069  0.92115968     0.80100
N545        N  0.85502612  0.56495029  0.95575529    -0.78200
C546        C  0.84001333  0.58023287  0.00097613     0.82500
N547        N  0.75238274  0.56169364  0.36169837    -0.78200
C548        C  0.73545134  0.52352512  0.37351830     0.82600
N549        N  0.75634860  0.50566486  0.36216861    -0.79900
C550        C  0.54416865  0.77940304  0.47128311     0.80100
N551        N  0.56555645  0.78160784  0.53041775    -0.78200
C552        C  0.57628439  0.75544295  0.54419912     0.82500
N553        N  0.61443568  0.75982157  0.94716208    -0.78200
C554        C  0.58511424  0.74979036  0.89922192     0.82600
N555        N  0.57100686  0.77428338  0.88786351    -0.79900
O556        O  0.93274783  0.97486272  0.77404339    -0.88500
C557        C  0.99426475  0.93282883  0.11531481     0.87500
Mg558      Mg  0.97125219  0.03555438  0.79358043     1.58100
O559        O  0.97155764  0.90920492  0.66573939    -0.88200
O560        O  0.92432852  0.91743775  0.79532998    -0.75500
C561        C  0.18923151  0.09259235  0.25815311     0.92600
O562        O  0.01283208  0.01920767  0.08657455    -0.75400
O563        O  0.16915327  0.10745452  0.24084214    -0.82900
Mg564      Mg  0.95722777  0.97554320  0.14606784     1.58000
C565        C  0.07253851  0.92181377  0.58304664     0.92500
O566        O  0.84399962  0.90946744  0.74061360    -0.81100
H567        H  0.97398242  0.87872587  0.75112610    -0.06500
C568        C  0.10832483  0.00229008  0.15949457     0.87500
O569        O  0.01853403  0.02265638  0.83122526    -0.75600
O570        O  0.98026031  0.93972966  0.16937605    -0.88400
O571        O  0.03738678  0.90688577  0.56613883    -0.81200
C572        C  0.98240859  0.84141158  0.20736382     0.92600
C573        C  0.82931059  0.87356825  0.73190814     0.92500
Mg574      Mg  0.06631014  0.98572597  0.67713106     1.58000
O575        O  0.17400398  0.05752979  0.27779186    -0.81100
O576        O  0.02236188  0.92988562  0.73376799    -0.75400
O577        O  0.96119286  0.85568649  0.21961538    -0.81200
O578        O  0.93301298  0.01309289  0.11529459    -0.82900
O579        O  0.06277564  0.09854427  0.77309331    -0.81200
C580        C  0.98867377  0.90445031  0.71731196     0.86900
O581        O  0.04504351  0.01803770  0.72958854    -0.88400
O582        O  0.09310133  0.98632822  0.21863990    -0.88500
O583        O  0.11508604  0.03581367  0.14382290    -0.75500
Mg584      Mg  0.91204721  0.88553134  0.68431616     1.58000
O585        O  0.01863386  0.86081282  0.21369117    -0.82900
H586        H  0.93499985  0.95598571  0.87543953    -0.06600
O587        O  0.05000309  0.05476440  0.17442170    -0.88200
H588        H  0.06576581  0.06521992  0.06823275    -0.06500
H589        H  0.06228585  0.01149401  0.82933559    -0.06700
C590        C  0.04382101  0.04758653  0.10831032     0.86900
C591        C  0.93075252  0.94991030  0.81734517     0.87500
C592        C  0.04295737  0.01712252  0.79765775     0.87500
H593        H  0.11528312  0.98710520  0.11967164    -0.06600
O594        O  0.02348674  0.92902964  0.12068788    -0.75700
Mg595      Mg  0.10803214  0.08030602  0.20852095     1.58000
H596        H  0.98224268  0.93155029  0.06156070    -0.06600
C597        C  0.94903522  0.04930776  0.11541666     0.92500
O598        O  0.01137353  0.10078766  0.80291708    -0.82900
C599        C  0.04678522  0.11796265  0.78572197     0.92600
O600        O  0.84876762  0.85962725  0.70589190    -0.82900
Mg601      Mg  0.05687633  0.92524631  0.21903784     1.58200
O602        O  0.97913793  0.06965664  0.15277186    -0.81200
O603        O  0.08983480  0.95271991  0.61852702    -0.82900
C604        C  0.02555756  0.48607121  0.65136602    -0.02600
C605        C  0.50304121  0.99004653  0.63829213    -0.02600
C606        C  0.50677827  0.49698688  0.64937076    -0.02600
C607        C  0.71419709  0.75232984  0.67732713    -0.18000
C608        C  0.72779102  0.77045302  0.10143072    -0.20100
C609        C  0.65640170  0.75428747  0.64951212     0.20500
C610        C  0.67124640  0.78914131  0.68698197    -0.03100
C611        C  0.70854524  0.80651419  0.71605433    -0.06100
C612        C  0.73071935  0.78881026  0.70795855     0.20800
C613        C  0.72491300  0.84324875  0.74656794     0.19000
C614        C  0.70250941  0.86050001  0.75468317    -0.17600
C615        C  0.66542716  0.84313808  0.72641064    -0.19800
C616        C  0.65038155  0.80842960  0.68925454     0.20400
C617        C  0.61666581  0.79459925  0.64860641    -0.32800
C618        C  0.60428144  0.76252755  0.60352760     0.01100
C619        C  0.67815709  0.78072392  0.04772120    -0.24200
C620        C  0.76995950  0.80942062  0.72346522    -0.28700
C621        C  0.78750368  0.84797136  0.74419610     0.06800
C622        C  0.76427349  0.86360083  0.76135509    -0.27400
H623        H  0.77549944  0.76689168  0.14375754     0.11500
H624        H  0.71445410  0.74193567  0.07928454     0.12700
H625        H  0.71442195  0.88843006  0.77902053     0.11700
H626        H  0.64946281  0.85800159  0.72965351     0.11000
H627        H  0.60202075  0.81083945  0.64716837     0.16400
H628        H  0.66525796  0.75281269  0.02294639     0.12300
H629        H  0.78740925  0.79673646  0.71169234     0.15100
H630        H  0.77731261  0.89297677  0.77893592     0.14900
C631        C  0.45687091  0.83287543  0.48866492    -0.18000
C632        C  0.45169894  0.86299310  0.51220675    -0.20100
C633        C  0.48325561  0.89862845  0.53068556     0.20500
C634        C  0.52036233  0.90421911  0.52163891    -0.03100
C635        C  0.52568110  0.87418090  0.49565442    -0.06100
C636        C  0.49377801  0.83783358  0.48122797     0.20800
C637        C  0.56296445  0.87998493  0.48813966     0.19000
C638        C  0.59456026  0.91587824  0.50408690    -0.17600
C639        C  0.58925655  0.94509524  0.53104536    -0.19800
C640        C  0.55222794  0.93923954  0.54176663     0.20400
C641        C  0.54687338  0.96723456  0.57577354    -0.32800
C642        C  0.50983661  0.96216448  0.58856292     0.01100
C643        C  0.47832423  0.92796766  0.56122757    -0.24200
C644        C  0.49939528  0.80676794  0.46430797    -0.28700
C645        C  0.53668042  0.81195543  0.46104541     0.06800
C646        C  0.56811181  0.84924164  0.46972537    -0.27400
H647        H  0.46568980  0.81795899  0.96121271     0.11500
H648        H  0.42283169  0.85791551  0.51842559     0.12700
H649        H  0.62345324  0.92093226  0.49838432     0.11700
H650        H  0.61417937  0.97200245  0.54531462     0.11000
H651        H  0.57229586  0.99220651  0.59403253     0.16400
H652        H  0.44954253  0.92299097  0.56838505     0.12300
H653        H  0.51344286  0.79809612  0.92977557     0.15100
H654        H  0.59688875  0.85361024  0.46841464     0.14900
C655        C  0.53278167  0.63198789  0.64326020    -0.18000
C656        C  0.54004140  0.66572987  0.67803574    -0.20100
C657        C  0.55006237  0.67144971  0.75276174     0.20500
C658        C  0.55217083  0.64220203  0.79262290    -0.03100
C659        C  0.54413306  0.60771818  0.75768252    -0.06100
C660        C  0.53459794  0.60271438  0.68267467     0.20800
C661        C  0.54605215  0.57846799  0.79763774     0.19000
C662        C  0.55648149  0.58422524  0.87216264    -0.17600
C663        C  0.56454385  0.61824117  0.90659182    -0.19800
C664        C  0.56248175  0.64740990  0.86733512     0.20400
C665        C  0.57121647  0.68187936  0.90131736    -0.32800
C666        C  0.56984156  0.71177850  0.86239024     0.01100
C667        C  0.55863736  0.70596524  0.78790289    -0.24200
C668        C  0.52592773  0.56815645  0.64884901    -0.28700
C669        C  0.52383728  0.53669850  0.68943529     0.06800
C670        C  0.53696636  0.54380065  0.76306411    -0.27400
H671        H  0.52524892  0.62858620  0.58553300     0.11500
H672        H  0.53785800  0.68740943  0.64629468     0.12700
H673        H  0.55807484  0.56223224  0.90417180     0.11700
H674        H  0.47851957  0.57820879  0.46047931     0.11000
H675        H  0.50097157  0.64728269  0.46979293     0.16400
H676        H  0.55811167  0.72873640  0.75665208     0.12300
H677        H  0.51820794  0.56464036  0.59115245     0.15100
H678        H  0.54097307  0.52310678  0.79391342     0.14900
C679        C  0.96392289  0.69872525  0.04799714    -0.18000
C680        C  0.98394200  0.73534393  0.07783948    -0.20100
C681        C  0.96457831  0.74952402  0.11925357     0.20500
C682        C  0.92480812  0.72623479  0.13202158    -0.03100
C683        C  0.90476925  0.68930105  0.10262354    -0.06100
C684        C  0.92424171  0.67558260  0.05942798     0.20800
C685        C  0.80376988  0.68020209  0.37743988     0.19000
C686        C  0.78180098  0.69589253  0.40207012    -0.17600
C687        C  0.79955813  0.73220909  0.43272624    -0.19800
C688        C  0.83954525  0.75351052  0.43832368     0.20400
C689        C  0.85738563  0.78825155  0.47552527    -0.32800
C690        C  0.96369237  0.80114300  0.18502567     0.01100
C691        C  0.98393245  0.78686620  0.14648833    -0.24200
C692        C  0.90346669  0.63942249  0.02717190    -0.28700
C693        C  0.86359561  0.61702649  0.03822950     0.06800
C694        C  0.78607314  0.64211801  0.35587711    -0.27400
H695        H  0.97940798  0.68868423  0.01528168     0.11500
H696        H  0.01447631  0.75280898  0.06754770     0.12700
H697        H  0.75080082  0.67943344  0.40047791     0.11700
H698        H  0.78196462  0.74314614  0.45404009     0.11000
H699        H  0.84018990  0.79883011  0.50034827     0.16400
H700        H  0.01431321  0.80518960  0.13544611     0.12300
H701        H  0.91810975  0.62915458  0.99254259     0.15100
H702        H  0.75507331  0.62502100  0.35766829     0.14900
C703        C  0.57255161  0.50026447  0.40420421    -0.18000
C704        C  0.60287658  0.49963413  0.36706936    -0.20100
C705        C  0.63348576  0.50071344  0.40618498     0.20500
C706        C  0.63312135  0.50205982  0.48365019    -0.03100
C707        C  0.60283672  0.50340169  0.52102963    -0.06100
C708        C  0.57216870  0.50238899  0.48152130     0.20800
C709        C  0.60368233  0.50635832  0.59803844     0.19000
C710        C  0.63406952  0.50740351  0.63748476    -0.17600
C711        C  0.66368075  0.50580744  0.60085089    -0.19800
C712        C  0.66369074  0.50333906  0.52388616     0.20400
C713        C  0.69483205  0.50434519  0.48656941    -0.32800
C714        C  0.69673512  0.50516826  0.40915997     0.01100
C715        C  0.66537392  0.50253307  0.36946565    -0.24200
C716        C  0.54167245  0.50299104  0.52005279    -0.28700
C717        C  0.54120505  0.50376755  0.59821962     0.06800
C718        C  0.57385191  0.50742905  0.63509011    -0.27400
H719        H  0.54946517  0.49924464  0.37229819     0.11500
H720        H  0.63998883  0.47319360  0.87253539     0.12700
H721        H  0.63495912  0.50947162  0.69696786     0.11700
H722        H  0.68691251  0.50706803  0.63275564     0.11000
H723        H  0.71935314  0.50811958  0.51767128     0.16400
H724        H  0.70907934  0.49229186  0.89613933     0.12300
H725        H  0.51868485  0.50252006  0.48899128     0.15100
H726        H  0.57482266  0.50865535  0.69467700     0.14900
C727        C  0.93984170  0.57254404  0.74994357    -0.18000
C728        C  0.96912778  0.56815190  0.71931589    -0.20100
C729        C  0.96902712  0.53356637  0.72809524     0.20500
C730        C  0.93897116  0.50309424  0.76819138    -0.03100
C731        C  0.90920758  0.50758661  0.79969254    -0.06100
C732        C  0.90984750  0.54251786  0.79038725     0.20800
C733        C  0.87925558  0.47749524  0.84128690     0.19000
C734        C  0.87901001  0.44271765  0.84875905    -0.17600
C735        C  0.90796022  0.43802228  0.81599206    -0.19800
C736        C  0.93849615  0.46819667  0.77629305     0.20400
C737        C  0.96789682  0.46386046  0.74307354    -0.32800
C738        C  0.99813243  0.49396555  0.70080769     0.01100
C739        C  0.99804125  0.52898656  0.69549038    -0.24200
C740        C  0.88144166  0.54757906  0.82396515    -0.28700
C741        C  0.85253619  0.51885896  0.86931135     0.06800
C742        C  0.85109889  0.48331026  0.87638384    -0.27400
H743        H  0.90079778  0.51047587  0.45047128     0.11500
H744        H  0.99189987  0.59190592  0.68847463     0.12700
H745        H  0.85636387  0.41903706  0.87992605     0.11700
H746        H  0.90631738  0.41062640  0.82162659     0.11000
H747        H  0.96644106  0.43641881  0.74734812     0.16400
H748        H  0.01940911  0.55279187  0.66292781     0.12300
H749        H  0.84304919  0.51618265  0.42504703     0.15100
H750        H  0.82972237  0.46122100  0.91238137     0.14900
C751        C  0.19269437  0.92868444  0.50105865    -0.18000
C752        C  0.21211115  0.91090746  0.47373467    -0.20100
C753        C  0.19247832  0.87133855  0.46200381     0.20500
C754        C  0.15276463  0.84959221  0.47674236    -0.03100
C755        C  0.13308203  0.86759566  0.50326500    -0.06100
C756        C  0.15324023  0.90724169  0.51647910     0.20800
C757        C  0.09322494  0.84588082  0.51649655     0.19000
C758        C  0.07340370  0.80652721  0.50301562    -0.17600
C759        C  0.09300539  0.78859906  0.47794627    -0.19800
C760        C  0.13266795  0.80981598  0.46512579     0.20400
C761        C  0.15254693  0.79185769  0.44120697    -0.32800
C762        C  0.19224124  0.81313180  0.42759123     0.01100
C763        C  0.21189434  0.85303609  0.43676496    -0.24200
C764        C  0.13352651  0.92469184  0.54456317    -0.28700
C765        C  0.09377995  0.90311414  0.55796909     0.06800
C766        C  0.07383018  0.86383607  0.54300902    -0.27400
H767        H  0.20855262  0.95920832  0.51021806     0.11500
H768        H  0.24257814  0.92806232  0.46244095     0.12700
H769        H  0.04276045  0.78952698  0.51251773     0.11700
H770        H  0.07713187  0.75809276  0.46864995     0.11000
H771        H  0.13703411  0.76121535  0.43324026     0.16400
H772        H  0.24249096  0.86972117  0.42637687     0.12300
H773        H  0.14892379  0.95517482  0.55441786     0.15100
H774        H  0.04315237  0.84712608  0.55261965     0.14900
C775        C  0.10717386  0.60454277  0.38299778    -0.18000
C776        C  0.07946668  0.57007189  0.41746884    -0.20100
C777        C  0.08167191  0.56312279  0.49302708     0.20500
C778        C  0.11270681  0.59136099  0.53325839    -0.03100
C779        C  0.14178979  0.62532231  0.49755750    -0.06100
C780        C  0.13880088  0.63230351  0.42220883     0.20800
C781        C  0.17302587  0.65299789  0.53818405     0.19000
C782        C  0.17476828  0.64667455  0.61396154    -0.17600
C783        C  0.14555903  0.61387081  0.64942264    -0.19800
C784        C  0.11434806  0.58618366  0.60964363     0.20400
C785        C  0.08482809  0.55357462  0.64548170    -0.32800
C786        C  0.05437709  0.52344020  0.60645714     0.01100
C787        C  0.05341944  0.52884221  0.52911751    -0.24200
C788        C  0.16631750  0.66767510  0.38882668    -0.28700
C789        C  0.19748531  0.69579073  0.42933832     0.06800
C790        C  0.20081747  0.68749206  0.50364083    -0.27400
H791        H  0.10361563  0.60964147  0.32565110     0.11500
H792        H  0.05578584  0.54921907  0.38526778     0.12700
H793        H  0.19832163  0.66760080  0.64629947     0.11700
H794        H  0.14739383  0.61016678  0.70823520     0.11000
H795        H  0.08614826  0.55096959  0.70476965     0.16400
H796        H  0.03073997  0.50696385  0.49682773     0.12300
H797        H  0.15515443  0.69173576  0.89792575     0.15100
H798        H  0.22333626  0.70945151  0.53640361     0.14900
C799        C  0.36473666  0.93539585  0.72169609    -0.18000
C800        C  0.33178810  0.90808728  0.75997965    -0.20100
C801        C  0.33256507  0.87986602  0.80479061     0.20500
C802        C  0.36706344  0.87919578  0.81049151    -0.03100
C803        C  0.40072661  0.90731218  0.77213030    -0.06100
C804        C  0.39946291  0.93544032  0.72765303     0.20800
C805        C  0.43541238  0.90706484  0.77774635     0.19000
C806        C  0.43598502  0.87851812  0.82225177    -0.17600
C807        C  0.40282308  0.85082626  0.86037122    -0.19800
C808        C  0.36801905  0.85074415  0.85500597     0.20400
C809        C  0.33452148  0.82344209  0.89439879    -0.32800
C810        C  0.30009223  0.82452029  0.89052096     0.01100
C811        C  0.29969091  0.85295416  0.84507913    -0.24200
C812        C  0.43247742  0.96278311  0.68852358    -0.28700
C813        C  0.46813436  0.96353141  0.69220868     0.06800
C814        C  0.46854673  0.93477311  0.73792279    -0.27400
H815        H  0.36304597  0.95667215  0.68745793     0.11500
H816        H  0.30563044  0.90912212  0.75460096     0.12700
H817        H  0.46218546  0.87756912  0.82768097     0.11700
H818        H  0.40447491  0.82944676  0.89431020     0.11000
H819        H  0.33572697  0.80250611  0.93054702     0.16400
H820        H  0.27380571  0.85468695  0.84255834     0.12300
H821        H  0.42902824  0.98234417  0.65269579     0.15100
H822        H  0.49445134  0.93310540  0.74033813     0.14900
C823        C  0.31592489  0.10403272  0.23425059    -0.18000
C824        C  0.35246468  0.12321709  0.20207457    -0.20100
C825        C  0.36650733  0.15955036  0.16917259     0.20500
C826        C  0.34491550  0.17800465  0.17354245    -0.03100
C827        C  0.30825397  0.15881467  0.20650962    -0.06100
C828        C  0.29311056  0.12107044  0.23437039     0.20800
C829        C  0.28580905  0.17645018  0.20713773     0.19000
C830        C  0.30101699  0.21391859  0.17927971    -0.17600
C831        C  0.33725665  0.23281778  0.14598167    -0.19800
C832        C  0.35879910  0.21455341  0.14055258     0.20400
C833        C  0.39268887  0.23107324  0.09865694    -0.32800
C834        C  0.41262116  0.21132411  0.08893025     0.01100
C835        C  0.40050266  0.17659705  0.12780875    -0.24200
C836        C  0.25468878  0.10023032  0.25726267    -0.28700
C837        C  0.23125838  0.11657339  0.25128686     0.06800
C838        C  0.24765067  0.15539776  0.23061602    -0.27400
H839        H  0.30496657  0.07533487  0.25649737     0.11500
H840        H  0.36903908  0.10895143  0.20007336     0.12700
H841        H  0.28418104  0.22793257  0.18016447     0.11700
H842        H  0.34774449  0.26107004  0.12181068     0.11000
H843        H  0.40233078  0.25829074  0.07048079     0.16400
H844        H  0.34066174  0.10457321  0.44002214     0.12300
H845        H  0.24247457  0.07058410  0.27482927     0.15100
H846        H  0.23005389  0.16859300  0.22784999     0.14900
C847        C  0.47034072  0.06919506  0.36275500    -0.18000
C848        C  0.47657362  0.04191163  0.39957980    -0.20100
C849        C  0.48270234  0.04362326  0.47610326     0.20500
C850        C  0.48326718  0.07384694  0.51499747    -0.03100
C851        C  0.47839421  0.10222694  0.47735791    -0.06100
C852        C  0.47118370  0.09958516  0.40103276     0.20800
C853        C  0.47949545  0.13255869  0.51678645     0.19000
C854        C  0.48533027  0.13424882  0.59311840    -0.17600
C855        C  0.48933842  0.10591305  0.63029756    -0.19800
C856        C  0.48815723  0.07553710  0.59183831     0.20400
C857        C  0.49197928  0.04705541  0.62936153    -0.32800
C858        C  0.49307468  0.01709458  0.59195430     0.01100
C859        C  0.48829266  0.01586421  0.51431230    -0.24200
C860        C  0.46327056  0.12632659  0.36550627    -0.28700
C861        C  0.46374009  0.15640454  0.40500758     0.06800
C862        C  0.47285753  0.15963121  0.48022401    -0.27400
H863        H  0.46463275  0.06635435  0.30423574     0.11500
H864        H  0.47595931  0.01906408  0.36825150     0.12700
H865        H  0.48607655  0.15715817  0.62442514     0.11700
H866        H  0.49333154  0.10775423  0.68940923     0.11000
H867        H  0.49540816  0.04875400  0.68865673     0.16400
H868        H  0.48903105  0.99367755  0.48324838     0.12300
H869        H  0.45491361  0.12267225  0.30817625     0.15100
H870        H  0.47170490  0.18156411  0.51171563     0.14900
C871        C  0.50057695  0.37006342  0.66268590    -0.18000
C872        C  0.50119774  0.34029772  0.70236045    -0.20100
C873        C  0.49765534  0.33788187  0.77950947     0.20500
C874        C  0.49319951  0.36596076  0.81649792    -0.03100
C875        C  0.49265656  0.39616663  0.77621729    -0.06100
C876        C  0.49653171  0.39823779  0.69918255     0.20800
C877        C  0.48772318  0.42395465  0.81287764     0.19000
C878        C  0.48317517  0.42104962  0.88982602    -0.17600
C879        C  0.48381656  0.39134446  0.92975586    -0.19800
C880        C  0.48878763  0.36363245  0.89359853     0.20400
C881        C  0.48831441  0.33308965  0.93300908    -0.32800
C882        C  0.49194328  0.30426209  0.89700499     0.01100
C883        C  0.49731703  0.30737958  0.81994732    -0.24200
C884        C  0.49746570  0.42899269  0.65993615    -0.28700
C885        C  0.49700584  0.45978908  0.69600930     0.06800
C886        C  0.48831052  0.45455937  0.77237222    -0.27400
H887        H  0.50363150  0.37123491  0.60325695     0.11500
H888        H  0.50437033  0.31908143  0.67255794     0.12700
H889        H  0.47965273  0.44212760  0.91920823     0.11700
H890        H  0.39202463  0.32504025  0.33252883     0.11000
H891        H  0.40394681  0.27220780  0.34853384     0.16400
H892        H  0.49919669  0.28513192  0.79119279     0.12300
H893        H  0.50087821  0.43001361  0.60063929     0.15100
H894        H  0.48239432  0.47427827  0.80089295     0.14900
C895        C  0.20592366  0.26937632  0.22296080    -0.18000
C896        C  0.22471734  0.30560972  0.18915657    -0.20100
C897        C  0.20364578  0.32143647  0.15921097     0.20500
C898        C  0.12513228  0.26991844  0.66875320    -0.03100
C899        C  0.10663336  0.23396445  0.70571732    -0.06100
C900        C  0.16580026  0.24852331  0.22752845     0.20800
C901        C  0.06793897  0.21735837  0.72804805     0.19000
C902        C  0.04840843  0.23733896  0.71455825    -0.17600
C903        C  0.06675330  0.27299437  0.67778242    -0.19800
C904        C  0.10498798  0.28936472  0.65384632     0.20400
C905        C  0.12325618  0.32441636  0.61419897    -0.32800
C906        C  0.16151739  0.34031987  0.58999589     0.01100
C907        C  0.22198568  0.35573952  0.11843225    -0.24200
C908        C  0.14663677  0.21049433  0.25321816    -0.28700
C909        C  0.06833993  0.15974357  0.76962259     0.06800
C910        C  0.04906628  0.18041385  0.76038790    -0.27400
H911        H  0.22270705  0.25711443  0.24316767     0.11500
H912        H  0.25566398  0.32065949  0.18407971     0.12700
H913        H  0.01870044  0.22507209  0.73129199     0.11700
H914        H  0.05084964  0.28752735  0.66716790     0.11000
H915        H  0.10771251  0.33917747  0.60198043     0.16400
H916        H  0.25281218  0.37005569  0.11124162     0.12300
H917        H  0.16322072  0.19730215  0.26933277     0.15100
H918        H  0.01885554  0.16694969  0.77420034     0.14900
C919        C  0.35889284  0.42630280  0.44387418    -0.18000
C920        C  0.39532166  0.43405058  0.46739595    -0.20100
C921        C  0.41306928  0.45747459  0.52815092     0.20500
C922        C  0.39360178  0.47349010  0.56436182    -0.03100
C923        C  0.35704806  0.46621496  0.53988481    -0.06100
C924        C  0.33929200  0.44205573  0.47993010     0.20800
C925        C  0.33756269  0.48176982  0.57765134     0.19000
C926        C  0.35473473  0.50442686  0.63926187    -0.17600
C927        C  0.39026728  0.51089875  0.66412272    -0.19800
C928        C  0.40979635  0.49540927  0.62723088     0.20400
C929        C  0.44493600  0.50113554  0.65343826    -0.32800
C930        C  0.46724495  0.48845497  0.61522177     0.01100
C931        C  0.44942196  0.46465441  0.55397977    -0.24200
C932        C  0.30157985  0.43252583  0.45990388    -0.28700
C933        C  0.28156605  0.44739446  0.49823168     0.06800
C934        C  0.30037982  0.47266585  0.55609344    -0.27400
H935        H  0.34583459  0.40754944  0.39780073     0.11500
H936        H  0.40941712  0.42127195  0.43846033     0.12700
H937        H  0.34025837  0.51645861  0.66936986     0.11700
H938        H  0.40244601  0.52797659  0.71262050     0.11000
H939        H  0.45481646  0.51585842  0.70500941     0.16400
H940        H  0.46314963  0.45100378  0.52713189     0.12300
H941        H  0.28689841  0.41171788  0.41746486     0.15100
H942        H  0.28479879  0.48285172  0.58822732     0.14900
C943        C  0.14020890  0.46831577  0.65948402    -0.18000
C944        C  0.16861698  0.46482641  0.69742040    -0.20100
C945        C  0.16840123  0.46292513  0.77479280     0.20500
C946        C  0.13909163  0.46480834  0.81385166    -0.03100
C947        C  0.11033610  0.46840465  0.77530565    -0.06100
C948        C  0.11080808  0.46991822  0.69787376     0.20800
C949        C  0.08132417  0.47070508  0.81431111     0.19000
C950        C  0.08137936  0.46931619  0.89170558    -0.17600
C951        C  0.10927195  0.46505696  0.92973281    -0.19800
C952        C  0.13821982  0.46267754  0.89139362     0.20400
C953        C  0.16573270  0.45738990  0.92920435    -0.32800
C954        C  0.19475734  0.45458436  0.89112339     0.01100
C955        C  0.19629035  0.45825311  0.81359866    -0.24200
C956        C  0.08229423  0.47353777  0.66002485    -0.28700
C957        C  0.05276008  0.47620824  0.69754573     0.06800
C958        C  0.05316162  0.47494956  0.77570550    -0.27400
H959        H  0.14131671  0.46986760  0.59986943     0.11500
H960        H  0.19067373  0.46339715  0.66607306     0.12700
H961        H  0.05975826  0.47138367  0.92289829     0.11700
H962        H  0.05323707  0.42061247  0.49717472     0.11000
H963        H  0.11299694  0.41826451  0.50753006     0.16400
H964        H  0.21790026  0.45552430  0.78337951     0.12300
H965        H  0.08349619  0.47528643  0.60033691     0.15100
H966        H  0.03248578  0.47834674  0.80732057     0.14900
C967        C  0.82180093  0.06038469  0.94543092    -0.18000
C968        C  0.84023013  0.04227656  0.97714326    -0.20100
C969        C  0.87747669  0.06392942  0.00475879     0.20500
C970        C  0.89693379  0.10413878  0.99764638    -0.03100
C971        C  0.87841177  0.12237411  0.96534231    -0.06100
C972        C  0.84033721  0.10044338  0.94063875     0.20800
C973        C  0.83561439  0.15728951  0.70410372     0.19000
C974        C  0.87235917  0.17554428  0.73468913    -0.17600
C975        C  0.88855852  0.15410676  0.76011632    -0.19800
C976        C  0.86812810  0.11410546  0.75582938     0.20400
C977        C  0.88593533  0.09277319  0.77180937    -0.32800
C978        C  0.93184949  0.06811591  0.07186964     0.01100
C979        C  0.89514709  0.04617150  0.04132319    -0.24200
C980        C  0.82115025  0.11897906  0.91374323    -0.28700
C981        C  0.83959065  0.15918408  0.91155592     0.06800
C982        C  0.82168715  0.17859410  0.66806094    -0.27400
H983        H  0.79277098  0.04306506  0.92593029     0.11500
H984        H  0.82501271  0.01133268  0.98155700     0.12700
H985        H  0.88923645  0.20647803  0.73599942     0.11700
H986        H  0.91756667  0.16889367  0.78070650     0.11000
H987        H  0.91575969  0.10746200  0.78779510     0.16400
H988        H  0.87975620  0.01529490  0.04799431     0.12300
H989        H  0.79160686  0.10211788  0.89666124     0.15100
H990        H  0.83958657  0.20947098  0.66489751     0.14900
C991        C  0.97138413  0.35004781  0.56626251    -0.18000
C992        C  0.94087401  0.31606711  0.53987634    -0.20100
C993        C  0.90722233  0.31467297  0.51567958     0.20500
C994        C  0.90500100  0.34828858  0.51467537    -0.03100
C995        C  0.93667154  0.38319581  0.53900405    -0.06100
C996        C  0.96932027  0.38364322  0.56733376     0.20800
C997        C  0.93496474  0.41708427  0.53824716     0.19000
C998        C  0.90136817  0.41565262  0.51269449    -0.17600
C999        C  0.86942366  0.38079881  0.49142185    -0.19800
C1000       C  0.87056730  0.34659260  0.49307531     0.20400
C1001       C  0.83756122  0.31053657  0.47802647    -0.32800
C1002       C  0.83925198  0.27647503  0.48246054     0.01100
C1003       C  0.87504026  0.27965711  0.49732036    -0.24200
C1004       C  0.99861320  0.41689602  0.59975710    -0.28700
C1005       C  0.99768763  0.45149489  0.60151456     0.06800
C1006       C  0.96596126  0.45117168  0.56638479    -0.27400
H1007       H  0.99639571  0.34985697  0.58712237     0.11500
H1008       H  0.94303779  0.29044695  0.54116221     0.12700
H1009       H  0.89925166  0.44129269  0.51162240     0.11700
H1010       H  0.93908114  0.36291515  0.82361860     0.11000
H1011       H  0.87829986  0.29953296  0.82525156     0.16400
H1012       H  0.87685202  0.25384376  0.50161620     0.12300
H1013       H  0.02112254  0.41439407  0.62608861     0.15100
H1014       H  0.96388149  0.47683098  0.56652049     0.14900
C1015       C  0.66864195  0.13514542  0.65414775    -0.18000
C1016       C  0.63360758  0.10799935  0.62405523    -0.20100
C1017       C  0.60573667  0.07757904  0.66746377     0.20500
C1018       C  0.61273475  0.07505282  0.74250696    -0.03100
C1019       C  0.64847065  0.10248029  0.77313835    -0.06100
C1020       C  0.67661868  0.13259925  0.72855839     0.20800
C1021       C  0.65628430  0.09936387  0.84777463     0.19000
C1022       C  0.62774258  0.06944771  0.89152189    -0.17600
C1023       C  0.59213005  0.04288707  0.86152750    -0.19800
C1024       C  0.58423520  0.04508633  0.78665730     0.20400
C1025       C  0.54864251  0.01788816  0.75526415    -0.32800
C1026       C  0.54161330  0.01890022  0.67871482     0.01100
C1027       C  0.57117885  0.04968939  0.63646388    -0.24200
C1028       C  0.71246674  0.15912849  0.75849903    -0.28700
C1029       C  0.72115727  0.15574199  0.83232168     0.06800
C1030       C  0.69271676  0.12561014  0.87655557    -0.27400
H1031       H  0.68963050  0.15804967  0.61896523     0.11500
H1032       H  0.62821272  0.11084344  0.56656418     0.12700
H1033       H  0.62135936  0.05551232  0.48671087     0.11700
H1034       H  0.57094872  0.02020285  0.89679708     0.11000
H1035       H  0.52702074  0.99610522  0.79095356     0.16400
H1036       H  0.56720836  0.05184188  0.57790802     0.11300
H1037       H  0.73434388  0.18133759  0.72335745     0.15100
H1038       H  0.68225725  0.11526320  0.49952553     0.14900
loop_ 
_geom_bond_atom_site_label_1 
_geom_bond_atom_site_label_2 
_geom_bond_distance 
_geom_bond_site_symmetry_2 
_ccdc_geom_bond_type 
C1            N2   1.377       .  A
C1            N6   1.351       .  A
C1          C483   1.497       .  S
N2          C522   1.380       .  A
C3            N4   1.361       .  A
C3          N521   1.385       .  A
C3          C510   1.514       .  S
N4            C5   1.351       .  A
C5          N525   1.348       .  A
C5          C462   1.484       .  S
N6          C524   1.353       .  A
C7            N8   1.363       .  A
C7          N531   1.380       .  A
C7          C435   1.507       .  S
N8            C9   1.358       .  A
C9          N529   1.354       .  A
C9          C906   1.485       .  S
N10          C11   1.351   1_554  A
N10         C528   1.346       .  A
C11          N12   1.378       .  A
C11         C414   1.500       .  S
N12         C526   1.383       .  A
C13          N14   1.352   1_556  A
C13         N537   1.381       .  A
C13         C342   1.499       .  S
N14         C534   1.345       .  A
C15          N16   1.346       .  A
C15         N533   1.355       .  A
C15         C315   1.479       .  S
N16          C17   1.352       .  A
C17          N18   1.378       .  A
C17         C363   1.505       .  S
N18         C532   1.380       .  A
C19          N20   1.382       .  A
C19          N24   1.360       .  A
C19         C291   1.513       .  S
N20         C540   1.383       .  A
C21          N22   1.353   1_556  A
C21         N539   1.379       .  A
C21         C270   1.504       .  S
N22         C542   1.353       .  A
C23          N24   1.352       .  A
C23         N541   1.352       .  A
C23         C762   1.482       .  S
C25          N26   1.358       .  A
C25         N549   1.380       .  A
C25         C222   1.495       .  S
N26          C27   1.355       .  A
C27         N547   1.351       .  A
C27         C174   1.479       .  S
N28          C29   1.348   1_554  A
N28         C546   1.340       .  A
C29          N30   1.382       .  A
C29         C195   1.509   1_556  S
N30         C544   1.389       .  A
C31          N32   1.355       .  A
C31         N555   1.380       .  A
C31         C126   1.505       .  S
N32          C33   1.349       .  A
C33         N553   1.354       .  A
C33          C99   1.486   1_556  S
N34          C35   1.361       .  A
N34         C552   1.356       .  A
C35          N36   1.382       .  A
C35         C147   1.501       .  S
N36         C550   1.378       .  A
O37         Mg39   2.125   1_655  S
O37        Mg564   2.153   1_545  S
O37          C72   1.237   1_545  S
C38          O51   1.236       .  S
C38          O75   1.269       .  A
C38          H77   1.081       .  S
Mg39        O587   2.131       .  S
Mg39         O79   2.250       .  S
Mg39         O50   2.332       .  S
Mg39        O602   2.321   1_455  S
O40         Mg65   2.137   1_455  S
O40        Mg601   2.153       .  S
O40          C61   1.236       .  S
O41          C72   1.270       .  A
O41         Mg65   2.295       .  S
C42         C318   1.475       .  S
C42          O44   1.274       .  A
C42          O56   1.264       .  A
O43          C71   1.270       .  A
O43         Mg45   2.312   1_545  S
O44         Mg76   2.311       .  S
Mg45         O51   2.133       .  S
Mg45        O556   2.164       .  S
Mg45         O59   2.245       .  S
Mg45        O566   2.314       .  S
C46         C246   1.483       .  S
C46          O84   1.273       .  A
C46          O52   1.273       .  A
O47          C54   1.272       .  A
O47        Mg564   2.274       .  S
H48          C61   1.082       .  S
C49          O63   1.235   1_545  S
C49          O64   1.268       .  A
C49          H74   1.080   1_545  S
O50          C73   1.276       .  A
O51        Mg584   2.132       .  S
O52        Mg601   2.300       .  S
C53         C171   1.474       .  S
C53          O66   1.267       .  A
C53          O58   1.280       .  A
C54         C102   1.477       .  S
C54          O81   1.274       .  A
Mg55         O62   2.176       .  S
Mg55        O582   2.139   1_545  S
Mg55         O57   2.311   1_545  S
Mg55         O84   2.289   1_545  S
Mg55        O575   2.304       .  S
O56        Mg574   2.208   1_545  S
O57          C61   1.271       .  A
O58        Mg584   2.339       .  S
O59          C78   1.270   1_565  A
O60          C80   1.272       .  A
O60        Mg595   2.295       .  S
O62        Mg595   2.156       .  S
O62          C73   1.237       .  S
O63         Mg82   2.099   1_455  S
O63        Mg574   2.152       .  S
O64         Mg76   2.280       .  S
Mg65        O570   2.148       .  S
Mg65         O81   2.289       .  S
Mg65        O577   2.273       .  S
O66         Mg82   2.204       .  S
H67          C72   1.081   1_545  S
O68         Mg76   2.166   1_655  S
O68        Mg558   2.144       .  S
O68          C71   1.235       .  S
H69          C71   1.081       .  S
H70          C73   1.081       .  S
O75         Mg82   2.291       .  S
Mg76        O581   2.166       .  S
Mg76        O579   2.268       .  S
C78         C459   1.481       .  S
C78          O83   1.276       .  A
O79          C80   1.269       .  A
C80         C390   1.481       .  S
Mg82        O559   2.150       .  S
Mg82        O571   2.287   1_655  S
O83        Mg558   2.313       .  S
C85         C219   1.580   1_455  S
C85         C267   1.585       .  S
C85         C438   1.584       .  S
C85         C486   1.576   1_455  S
C86         C123   1.592       .  S
C86         C294   1.594       .  S
C86         C339   1.574   1_565  S
C86         C507   1.594   1_565  S
C87         C150   1.594       .  S
C87         C198   1.569       .  S
C87         C366   1.599       .  S
C87         C411   1.584       .  S
C88         H623   1.084       .  S
C88          C93   1.404       .  A
C88         C608   1.401       .  A
C89         H105   1.084       .  S
C89         C607   1.399       .  A
C89         C609   1.403       .  A
C90          C91   1.412       .  A
C90         C608   1.404       .  A
C90         C619   1.406       .  A
C91          C97   1.410       .  A
C91          C92   1.412       .  A
C92          C94   1.411       .  A
C92          C93   1.413       .  A
C93         C101   1.406       .  A
C94         C103   1.399       .  A
C94          C95   1.403       .  A
C95         H106   1.084       .  S
C95          C96   1.397       .  A
C96         H107   1.084       .  S
C96          C97   1.403       .  A
C97          C98   1.399       .  A
C98         H108   1.084       .  S
C98          C99   1.409       .  A
C99         C619   1.409       .  A
C100        H109   1.084       .  S
C100        C609   1.404       .  A
C100        C618   1.407       .  A
C101        H110   1.084       .  S
C101        C102   1.406       .  A
C102        C103   1.406       .  A
C103        H111   1.085       .  S
H104        C607   1.084       .  S
C112        H647   1.083       .  S
C112        C113   1.409       .  A
C112        C117   1.407       .  A
C113        H129   1.083   1_556  S
C113        C114   1.409   1_556  A
C114        C124   1.418       .  A
C114        C115   1.406   1_554  A
C115        C121   1.408   1_556  A
C115        C116   1.425       .  A
C116        C118   1.408       .  A
C116        C117   1.415       .  A
C117        C125   1.424       .  A
C118        C127   1.407       .  A
C118        C119   1.405       .  A
C119        H130   1.083       .  S
C119        C120   1.401       .  A
C120        H131   1.085   1_556  S
C120        C121   1.405   1_556  A
C121        C122   1.412       .  A
C122        H132   1.078   1_565  S
C122        C123   1.422       .  A
C123        C124   1.430       .  A
C124        H133   1.082       .  S
C125        H653   1.083       .  S
C125        C126   1.413       .  A
C126        C127   1.415       .  A
C127        H135   1.085       .  S
H128        C631   1.083       .  S
H134        C644   1.083       .  S
C136        H152   1.084       .  S
C136        C137   1.406       .  A
C136        C141   1.408       .  A
C137        H153   1.083       .  S
C137        C138   1.406       .  A
C138        C148   1.419       .  A
C138        C139   1.415       .  A
C139        C145   1.410       .  A
C139        C140   1.426       .  A
C140        C142   1.410       .  A
C140        C141   1.406       .  A
C141        C149   1.413       .  A
C142        C151   1.421       .  A
C142        C143   1.408       .  A
C143        H154   1.081       .  S
C143        C144   1.406       .  A
C144        H674   1.085       .  S
C144        C145   1.407       .  A
C145        C146   1.414       .  A
C146        H675   1.084       .  S
C146        C147   1.413       .  A
C147        C148   1.412       .  A
C148        H157   1.084       .  S
C149        H158   1.084       .  S
C149        C150   1.427       .  A
C150        C151   1.424       .  A
C151        H159   1.067       .  S
H155        C663   1.084       .  S
H156        C665   1.084       .  S
C160        H176   1.083       .  S
C160        C161   1.398       .  A
C160        C165   1.403       .  A
C161        H177   1.084       .  S
C161        C162   1.404       .  A
C162        C172   1.397       .  A
C162        C163   1.409       .  A
C163        C164   1.408       .  A
C163        C688   1.414       .  A
C164        C165   1.413       .  A
C164        C685   1.409       .  A
C165        C173   1.402       .  A
C166        C175   1.391       .  A
C166        C167   1.402       .  A
C166        C683   1.408       .  A
C167        H178   1.084       .  S
C167        C168   1.392       .  A
C168        H179   1.084       .  S
C168        C169   1.401       .  A
C169        C170   1.394       .  A
C169        C682   1.411       .  A
C170        H180   1.085       .  S
C170        C690   1.404       .  A
C171        C172   1.409       .  A
C171        C689   1.403       .  A
C172        H181   1.085       .  S
C173        H182   1.084       .  S
C173        C174   1.407       .  A
C174        C694   1.408       .  A
C175        H183   1.084       .  S
C175        C693   1.408       .  A
C184        H200   1.084       .  S
C184        C185   1.412       .  A
C184        C189   1.410   1_556  A
C185        H720   1.083       .  S
C185        C186   1.409       .  A
C186        C196   1.430       .  A
C186        C187   1.416   1_556  A
C187        C193   1.405       .  A
C187        C188   1.423       .  A
C188        C190   1.411       .  A
C188        C189   1.408       .  A
C189        C197   1.421       .  A
C190        C199   1.405       .  A
C190        C191   1.402       .  A
C191        H202   1.084       .  S
C191        C192   1.397       .  A
C192        H203   1.084       .  S
C192        C193   1.404       .  A
C193        C194   1.398       .  A
C194        H204   1.086       .  S
C194        C195   1.416       .  A
C195        C196   1.417   1_554  A
C196        H724   1.083       .  S
C197        H206   1.082       .  S
C197        C198   1.425       .  A
C198        C199   1.419       .  A
C199        H207   1.083       .  S
H201        C704   1.083       .  S
H205        C715   1.083       .  S
C208        H743   1.083       .  S
C208        C209   1.410       .  A
C208        C213   1.409       .  A
C209        H225   1.084       .  S
C209        C210   1.408       .  A
C210        C220   1.424       .  A
C210        C211   1.413       .  A
C211        C217   1.406       .  A
C211        C212   1.424       .  A
C212        C214   1.414       .  A
C212        C213   1.411       .  A
C213        C221   1.421       .  A
C214        C223   1.410       .  A
C214        C215   1.404       .  A
C215        H226   1.084       .  S
C215        C216   1.400       .  A
C216        H227   1.084       .  S
C216        C217   1.406       .  A
C217        C218   1.404       .  A
C218        H228   1.083       .  S
C218        C219   1.422       .  A
C219        C220   1.421       .  A
C220        H229   1.079       .  S
C221        H749   1.084       .  S
C221        C222   1.416       .  A
C222        C223   1.407       .  A
C223        H231   1.085       .  S
H224        C727   1.084       .  S
H230        C740   1.085       .  S
C232        H248   1.084       .  S
C232        C233   1.402       .  A
C232        C237   1.405       .  A
C233        H249   1.083       .  S
C233        C234   1.405       .  A
C234        C244   1.411       .  A
C234        C235   1.413       .  A
C235        C241   1.409       .  A
C235        C236   1.414       .  A
C236        C238   1.412       .  A
C236        C237   1.411       .  A
C237        C245   1.407       .  A
C238        C247   1.402       .  A
C238        C239   1.402       .  A
C239        H250   1.084       .  S
C239        C240   1.397       .  A
C240        H251   1.084       .  S
C240        C241   1.404       .  A
C241        C242   1.400       .  A
C242        H252   1.084       .  S
C242        C243   1.411       .  A
C243        C542   1.493       .  S
C243        C244   1.410       .  A
C244        H253   1.084       .  S
C245        H254   1.084       .  S
C245        C246   1.410       .  A
C246        C247   1.406       .  A
C247        H255   1.085       .  S
C256        H272   1.083       .  S
C256        C257   1.414       .  A
C256        C261   1.411       .  A
C257        H273   1.083       .  S
C257        C258   1.410   1_556  A
C258        C268   1.432       .  A
C258        C259   1.414       .  A
C259        C265   1.404       .  A
C259        C260   1.427       .  A
C260        C262   1.412       .  A
C260        C261   1.411   1_554  A
C261        C269   1.428       .  A
C262        C271   1.407       .  A
C262        C263   1.403       .  A
C263        H274   1.084       .  S
C263        C264   1.398       .  A
C264        H275   1.083       .  S
C264        C265   1.404       .  A
C265        C266   1.402       .  A
C266        H276   1.084       .  S
C266        C267   1.423       .  A
C267        C268   1.425       .  A
C268        H277   1.081       .  S
C269        H797   1.083       .  S
C269        C270   1.420       .  A
C270        C271   1.408   1_556  A
C271        H279   1.085       .  S
H278        C788   1.084       .  S
C280        H296   1.084       .  S
C280        C281   1.398       .  A
C280        C285   1.405       .  A
C281        H297   1.084       .  S
C281        C282   1.403       .  A
C282        C292   1.403       .  A
C282        C283   1.409       .  A
C283        C289   1.414       .  A
C283        C284   1.427       .  A
C284        C286   1.409       .  A
C284        C285   1.408       .  A
C285        C293   1.407       .  A
C286        C295   1.426       .  A
C286        C287   1.410       .  A
C287        H298   1.083       .  S
C287        C288   1.413       .  A
C288        H299   1.083       .  S
C288        C289   1.409       .  A
C289        C290   1.430       .  A
C290        H300   1.083       .  S
C290        C291   1.418       .  A
C291        C292   1.413       .  A
C292        H301   1.085       .  S
C293        H302   1.080       .  S
C293        C294   1.424       .  A
C294        C295   1.428       .  A
C295        H303   1.083       .  S
C304        H320   1.084       .  S
C304        C305   1.394       .  A
C304        C309   1.403       .  A
C305        H321   1.084       .  S
C305        C306   1.401       .  A
C306        C316   1.399       .  A
C306        C307   1.414       .  A
C307        C313   1.408       .  A
C307        C308   1.409       .  A
C308        C310   1.416       .  A
C308        C309   1.407       .  A
C309        C317   1.391       .  A
C310        C319   1.408       .  A
C310        C311   1.403       .  A
C311        H322   1.083       .  S
C311        C312   1.400       .  A
C312        H323   1.084       .  S
C312        C313   1.405       .  A
C313        C314   1.400       .  A
C314        H324   1.084       .  S
C314        C315   1.411       .  A
C315        C316   1.403       .  A
C316        H844   1.084       .  S
C317        H326   1.085       .  S
C317        C318   1.409       .  A
C318        C319   1.404       .  A
C319        H327   1.084       .  S
H325        C835   1.084       .  S
C328        H344   1.083       .  S
C328        C329   1.414       .  A
C328        C333   1.410       .  A
C329        H345   1.084       .  S
C329        C330   1.410       .  A
C330        C340   1.428   1_556  A
C330        C331   1.413   1_556  A
C331        C337   1.407       .  A
C331        C332   1.422       .  A
C332        C334   1.410       .  A
C332        C333   1.413   1_554  A
C333        C341   1.428       .  A
C334        C343   1.400       .  A
C334        C335   1.402       .  A
C335        H346   1.084       .  S
C335        C336   1.395       .  A
C336        H347   1.083       .  S
C336        C337   1.402       .  A
C337        C338   1.396       .  A
C338        H348   1.085       .  S
C338        C339   1.419       .  A
C339        C340   1.422       .  A
C340        H349   1.082   1_554  S
C341        H350   1.083       .  S
C341        C342   1.418       .  A
C342        C343   1.409   1_556  A
C343        H351   1.086       .  S
C352        H368   1.084       .  S
C352        C353   1.402       .  A
C352        C357   1.409       .  A
C353        H369   1.083       .  S
C353        C354   1.403       .  A
C354        C364   1.418       .  A
C354        C355   1.417       .  A
C355        C361   1.403       .  A
C355        C356   1.421       .  A
C356        C358   1.412       .  A
C356        C357   1.400       .  A
C357        C365   1.404       .  A
C358        C367   1.416       .  A
C358        C359   1.404       .  A
C359        H370   1.084       .  S
C359        C360   1.403       .  A
C360        H890   1.084       .  S
C360        C361   1.407       .  A
C361        C362   1.403       .  A
C362        H891   1.083       .  S
C362        C363   1.420       .  A
C363        C364   1.408       .  A
C364        H373   1.084       .  S
C365        H374   1.072       .  S
C365        C366   1.433       .  A
C366        C367   1.422       .  A
C367        H375   1.084       .  S
H371        C879   1.083       .  S
H372        C881   1.084       .  S
C376        H392   1.084       .  S
C376        C377   1.396       .  A
C376        C381   1.403       .  A
C377        H393   1.084       .  S
C377        C378   1.403       .  A
C378        C388   1.399       .  A
C378        C898   1.410       .  A
C379        C385   1.413       .  A
C379        C380   1.411       .  A
C379        C897   1.409       .  A
C380        C382   1.410       .  A
C380        C900   1.412       .  A
C381        C389   1.400       .  A
C381        C899   1.411       .  A
C382        C391   1.402       .  A
C382        C383   1.404       .  A
C383        H394   1.084       .  S
C383        C384   1.399       .  A
C384        H395   1.084       .  S
C384        C385   1.403       .  A
C385        C386   1.406       .  A
C386        H396   1.084       .  S
C386        C387   1.406       .  A
C387        C528   1.484       .  S
C387        C907   1.411       .  A
C388        H397   1.084       .  S
C388        C906   1.408       .  A
C389        H398   1.084       .  S
C389        C909   1.407       .  A
C390        C391   1.408       .  A
C390        C908   1.408       .  A
C391        H399   1.084       .  S
C400        H416   1.084       .  S
C400        C401   1.402   1_556  A
C400        C405   1.406       .  A
C401        H417   1.084       .  S
C401        C402   1.404       .  A
C402        C412   1.411       .  A
C402        C403   1.410       .  A
C403        C409   1.405       .  A
C403        C404   1.421   1_554  A
C404        C406   1.416       .  A
C404        C405   1.407       .  A
C405        C413   1.405       .  A
C406        C415   1.421       .  A
C406        C407   1.406       .  A
C407        H418   1.084       .  S
C407        C408   1.406       .  A
C408        H419   1.083   1_556  S
C408        C409   1.408   1_556  A
C409        C410   1.413       .  A
C410        H420   1.071       .  S
C410        C411   1.425       .  A
C411        C412   1.421       .  A
C412        H421   1.081       .  S
C413        H422   1.085       .  S
C413        C414   1.415       .  A
C414        C415   1.410       .  A
C415        H423   1.084       .  S
C424        H440   1.083       .  S
C424        C425   1.403       .  A
C424        C429   1.407       .  A
C425        H441   1.084       .  S
C425        C426   1.404       .  A
C426        C436   1.417       .  A
C426        C427   1.415       .  A
C427        C433   1.408       .  A
C427        C428   1.425       .  A
C428        C430   1.414       .  A
C428        C429   1.405       .  A
C429        C437   1.408       .  A
C430        C439   1.423       .  A
C430        C431   1.407       .  A
C431        H442   1.083       .  S
C431        C432   1.408       .  A
C432        H962   1.082       .  S
C432        C433   1.407       .  A
C433        C434   1.415       .  A
C434        H963   1.084       .  S
C434        C435   1.417       .  A
C435        C436   1.410       .  A
C436        H445   1.084       .  S
C437        H446   1.084       .  S
C437        C438   1.424       .  A
C438        C439   1.420       .  A
C439        H447   1.078   1_455  S
H443        C951   1.083       .  S
H444        C953   1.085       .  S
C448        H464   1.084       .  S
C448        C449   1.398       .  A
C448        C453   1.403       .  A
C449        H465   1.084       .  S
C449        C450   1.404       .  A
C450        C460   1.400       .  A
C450        C451   1.410       .  A
C451        C452   1.410       .  A
C451        C976   1.412       .  A
C452        C453   1.412       .  A
C452        C973   1.410       .  A
C453        C461   1.403       .  A
C454        C463   1.398       .  A
C454        C455   1.403       .  A
C454        C971   1.409       .  A
C455        H466   1.084       .  S
C455        C456   1.397   1_556  A
C456        H467   1.084       .  S
C456        C457   1.403       .  A
C457        C458   1.402       .  A
C457        C970   1.412   1_554  A
C458        H468   1.084       .  S
C458        C978   1.406       .  A
C459        C460   1.408       .  A
C459        C977   1.407       .  A
C460        H469   1.084       .  S
C461        H470   1.084       .  S
C461        C462   1.407       .  A
C462        C982   1.409       .  A
C463        H471   1.084       .  S
C463        C981   1.410       .  A
C472        H488   1.084       .  S
C472        C473   1.400       .  A
C472        C477   1.405       .  A
C473        H489   1.083       .  S
C473        C474   1.403       .  A
C474        C484   1.412   1_554  A
C474        C475   1.415   1_554  A
C475        C481   1.409       .  A
C475        C476   1.426   1_556  A
C476        C478   1.415   1_554  A
C476        C477   1.405       .  A
C477        C485   1.402       .  A
C478        C487   1.429   1_556  A
C478        C479   1.408       .  A
C479        H490   1.082       .  S
C479        C480   1.411       .  A
C480       H1010   1.084       .  S
C480        C481   1.410       .  A
C481        C482   1.421       .  A
C482       H1011   1.084       .  S
C482        C483   1.418       .  A
C483        C484   1.406       .  A
C484        H493   1.085   1_556  S
C485        H494   1.084       .  S
C485        C486   1.421       .  A
C486        C487   1.420       .  A
C487        H495   1.077   1_655  S
H491        C999   1.083       .  S
H492       C1001   1.083       .  S
C496        H512   1.083       .  S
C496        C497   1.405       .  A
C496        C501   1.405       .  A
C497        H513   1.084       .  S
C497        C498   1.408       .  A
C498        C508   1.408       .  A
C498        C499   1.402       .  A
C499        C505   1.414       .  A
C499        C500   1.425       .  A
C500        C502   1.405       .  A
C500        C501   1.417       .  A
C501        C509   1.423       .  A
C502        C511   1.408       .  A
C502        C503   1.408       .  A
C503       H1033   1.083       .  S
C503        C504   1.404       .  A
C504        H515   1.084       .  S
C504        C505   1.406       .  A
C505        C506   1.420       .  A
C506        H516   1.077   1_545  S
C506        C507   1.422       .  A
C507        C508   1.431       .  A
C508        H517   1.083       .  S
C509        H518   1.083       .  S
C509        C510   1.412       .  A
C510        C511   1.420       .  A
C511       H1038   1.082       .  S
H514       C1022   1.084       .  S
H519       C1030   1.084       .  S
C520        N521   1.382       .  A
C520        N525   1.355       .  A
C520       C1002   1.505       .  S
C522        N523   1.362       .  A
C522       C1029   1.502       .  S
N523        C524   1.359       .  A
C524        C981   1.485       .  S
C526        N527   1.365       .  A
C526        C954   1.505       .  S
N527        C528   1.356   1_556  A
N529        C530   1.353       .  A
C530        N531   1.377       .  A
C530        C933   1.498       .  S
C532        N533   1.359       .  A
C532        C861   1.493       .  S
C534        N535   1.351   1_554  A
C534        C834   1.478       .  S
N535        C536   1.360       .  A
C536        N537   1.385       .  A
C536        C882   1.505       .  S
C538        N539   1.383       .  A
C538        N543   1.366       .  A
C538        C810   1.509       .  S
C540        N541   1.356       .  A
C540        C789   1.497       .  S
C542        N543   1.361   1_554  A
C544        N545   1.365       .  A
C544        C741   1.502       .  S
N545        C546   1.349   1_556  A
C546        C693   1.480       .  S
N547        C548   1.351       .  A
C548        N549   1.378       .  A
C548        C714   1.493       .  S
C550        N551   1.355       .  A
C550        C645   1.502       .  S
N551        C552   1.351       .  A
C552        C618   1.486       .  S
N553        C554   1.362       .  A
C554        N555   1.383       .  A
C554        C666   1.508       .  S
O556       Mg558   2.182   1_565  S
O556        C591   1.239       .  S
C557        O570   1.237       .  S
C557        O594   1.269   1_655  A
C557        H596   1.081       .  S
Mg558       O598   2.309   1_655  S
Mg558       O569   2.321   1_655  S
O559       Mg584   2.117       .  S
O559        C580   1.234       .  S
O560        C591   1.276       .  A
O560       Mg584   2.329       .  S
C561        C837   1.476       .  S
C561        O563   1.267       .  A
C561        O575   1.274       .  A
O562        C590   1.269       .  A
O562       Mg564   2.296   1_445  S
O563       Mg595   2.224       .  S
Mg564       O570   2.118       .  S
Mg564       O578   2.248   1_565  S
C565        C765   1.478       .  S
C565        O603   1.271       .  A
C565        O571   1.273       .  A
O566        C573   1.276       .  A
H567        C580   1.081       .  S
C568        O582   1.235   1_545  S
C568        O583   1.269       .  A
C568        H593   1.081   1_545  S
O569        C592   1.274       .  A
C572        C690   1.475       .  S
C572        O585   1.272   1_655  A
C572        O577   1.274       .  A
C573        C621   1.485       .  S
C573        O600   1.271       .  A
Mg574       O581   2.129   1_565  S
Mg574       O576   2.279       .  S
Mg574       O603   2.269       .  S
O576        C580   1.266   1_455  A
O578        C597   1.270       .  A
O579        C599   1.267       .  A
O581        C592   1.237       .  S
O582       Mg601   2.147       .  S
O583       Mg595   2.301       .  S
Mg584       O600   2.253       .  S
O585       Mg601   2.269       .  S
H586        C591   1.081       .  S
O587       Mg595   2.130       .  S
O587        C590   1.236       .  S
H588        C590   1.081       .  S
H589        C592   1.081       .  S
O594       Mg601   2.289       .  S
C597        C978   1.484       .  S
C597        O602   1.277       .  A
O598        C599   1.272       .  A
C599        C909   1.484       .  S
C604        C738   1.582   1_455  S
C604        C786   1.578       .  S
C604        C957   1.582       .  S
C604       C1005   1.582   1_455  S
C605        C642   1.585       .  S
C605        C813   1.593       .  S
C605        C858   1.576   1_565  S
C605       C1026   1.591   1_565  S
C606        C669   1.585       .  S
C606        C717   1.574       .  S
C606        C885   1.580       .  S
C606        C930   1.584       .  S
C607        C612   1.404       .  A
C608        H624   1.084       .  S
C609        C610   1.412       .  A
C610        C616   1.410       .  A
C610        C611   1.411       .  A
C611        C613   1.412       .  A
C611        C612   1.410       .  A
C612        C620   1.402       .  A
C613        C622   1.403       .  A
C613        C614   1.404       .  A
C614        H625   1.084       .  S
C614        C615   1.399       .  A
C615        H626   1.084       .  S
C615        C616   1.404       .  A
C616        C617   1.401       .  A
C617        H627   1.084       .  S
C617        C618   1.410       .  A
C619        H628   1.084       .  S
C620        H629   1.084       .  S
C620        C621   1.409       .  A
C621        C622   1.409       .  A
C622        H630   1.084       .  S
C631        C632   1.410       .  A
C631        C636   1.408       .  A
C632        H648   1.083       .  S
C632        C633   1.408       .  A
C633        C643   1.421       .  A
C633        C634   1.409       .  A
C634        C640   1.407       .  A
C634        C635   1.425       .  A
C635        C637   1.410       .  A
C635        C636   1.414       .  A
C636        C644   1.424       .  A
C637        C646   1.407       .  A
C637        C638   1.404       .  A
C638        H649   1.084       .  S
C638        C639   1.400       .  A
C639        H650   1.083       .  S
C639        C640   1.405       .  A
C640        C641   1.408       .  A
C641        H651   1.074       .  S
C641        C642   1.423       .  A
C642        C643   1.426       .  A
C643        H652   1.083       .  S
C644        C645   1.414       .  A
C645        C646   1.412       .  A
C646        H654   1.085       .  S
C655        H671   1.083       .  S
C655        C656   1.406       .  A
C655        C660   1.407       .  A
C656        H672   1.082       .  S
C656        C657   1.406       .  A
C657        C667   1.422       .  A
C657        C658   1.416       .  A
C658        C664   1.407       .  A
C658        C659   1.425       .  A
C659        C661   1.413       .  A
C659        C660   1.406       .  A
C660        C668   1.412       .  A
C661        C670   1.418       .  A
C661        C662   1.406       .  A
C662        H673   1.084       .  S
C662        C663   1.404       .  A
C663        C664   1.407       .  A
C664        C665   1.409       .  A
C665        C666   1.416       .  A
C666        C667   1.412       .  A
C667        H676   1.084       .  S
C668        H677   1.084       .  S
C668        C669   1.425       .  A
C669        C670   1.419       .  A
C670        H678   1.078       .  S
C679        H695   1.083       .  S
C679        C680   1.402       .  A
C679        C684   1.404       .  A
C680        H696   1.083   1_655  S
C680        C681   1.405       .  A
C681        C691   1.406       .  A
C681        C682   1.411       .  A
C682        C683   1.409       .  A
C683        C684   1.413       .  A
C684        C692   1.408       .  A
C685        C694   1.397       .  A
C685        C686   1.403       .  A
C686        H697   1.084       .  S
C686        C687   1.397       .  A
C687        H698   1.084       .  S
C687        C688   1.402       .  A
C688        C689   1.402       .  A
C689        H699   1.084       .  S
C690        C691   1.408       .  A
C691        H700   1.084   1_655  S
C692        H701   1.084   1_554  S
C692        C693   1.407       .  A
C694        H702   1.084       .  S
C703        H719   1.082       .  S
C703        C704   1.410       .  A
C703        C708   1.409       .  A
C704        C705   1.409       .  A
C705        C715   1.419       .  A
C705        C706   1.409       .  A
C706        C712   1.415       .  A
C706        C707   1.424       .  A
C707        C709   1.404       .  A
C707        C708   1.416       .  A
C708        C716   1.428       .  A
C709        C718   1.400       .  A
C709        C710   1.405       .  A
C710        H721   1.084       .  S
C710        C711   1.399       .  A
C711        H722   1.083       .  S
C711        C712   1.403       .  A
C712        C713   1.411       .  A
C713        H723   1.084       .  S
C713        C714   1.407       .  A
C714        C715   1.416       .  A
C716        H725   1.079       .  S
C716        C717   1.421       .  A
C717        C718   1.421       .  A
C718        H726   1.084       .  S
C727        C728   1.399       .  A
C727        C732   1.403       .  A
C728        H744   1.084       .  S
C728        C729   1.404       .  A
C729        C739   1.408       .  A
C729        C730   1.409       .  A
C730        C736   1.408       .  A
C730        C731   1.425       .  A
C731        C733   1.415       .  A
C731        C732   1.408       .  A
C732        C740   1.404       .  A
C733        C742   1.425       .  A
C733        C734   1.407       .  A
C734        H745   1.083       .  S
C734        C735   1.409       .  A
C735        H746   1.080       .  S
C735        C736   1.409       .  A
C736        C737   1.421       .  A
C737        H747   1.084       .  S
C737        C738   1.426       .  A
C738        C739   1.421       .  A
C739        H748   1.079   1_655  S
C740        C741   1.411       .  A
C741        C742   1.414       .  A
C742        H750   1.083       .  S
C751        H767   1.084       .  S
C751        C752   1.400       .  A
C751        C756   1.404       .  A
C752        H768   1.083       .  S
C752        C753   1.404       .  A
C753        C763   1.404       .  A
C753        C754   1.411       .  A
C754        C760   1.411       .  A
C754        C755   1.411       .  A
C755        C757   1.411       .  A
C755        C756   1.412       .  A
C756        C764   1.405       .  A
C757        C766   1.400       .  A
C757        C758   1.403       .  A
C758        H769   1.084       .  S
C758        C759   1.397       .  A
C759        H770   1.084       .  S
C759        C760   1.403       .  A
C760        C761   1.401       .  A
C761        H771   1.084       .  S
C761        C762   1.406       .  A
C762        C763   1.409       .  A
C763        H772   1.084       .  S
C764        H773   1.084       .  S
C764        C765   1.408       .  A
C765        C766   1.405       .  A
C766        H774   1.084       .  S
C775        H791   1.082       .  S
C775        C776   1.410       .  A
C775        C780   1.409       .  A
C776        H792   1.084       .  S
C776        C777   1.408       .  A
C777        C787   1.425       .  A
C777        C778   1.414       .  A
C778        C784   1.406       .  A
C778        C779   1.425       .  A
C779        C781   1.413       .  A
C779        C780   1.410       .  A
C780        C788   1.421       .  A
C781        C790   1.412       .  A
C781        C782   1.404       .  A
C782        H793   1.084       .  S
C782        C783   1.401       .  A
C783        H794   1.084       .  S
C783        C784   1.405       .  A
C784        C785   1.404       .  A
C785        H795   1.084       .  S
C785        C786   1.422       .  A
C786        C787   1.421       .  A
C787        H796   1.081       .  S
C788        C789   1.417       .  A
C789        C790   1.408       .  A
C790        H798   1.085       .  S
C799        H815   1.084       .  S
C799        C800   1.403       .  A
C799        C804   1.407       .  A
C800        H816   1.083       .  S
C800        C801   1.404       .  A
C801        C811   1.414       .  A
C801        C802   1.412       .  A
C802        C808   1.412       .  A
C802        C803   1.429       .  A
C803        C805   1.411       .  A
C803        C804   1.407       .  A
C804        C812   1.412       .  A
C805        C814   1.425       .  A
C805        C806   1.409       .  A
C806        H817   1.083       .  S
C806        C807   1.411       .  A
C807        H818   1.083       .  S
C807        C808   1.409       .  A
C808        C809   1.425       .  A
C809        H819   1.084       .  S
C809        C810   1.416       .  A
C810        C811   1.412       .  A
C811        H820   1.084       .  S
C812        H821   1.079       .  S
C812        C813   1.428       .  A
C813        C814   1.425       .  A
C814        H822   1.084       .  S
C823        H839   1.084       .  S
C823        C824   1.398       .  A
C823        C828   1.403       .  A
C824        H840   1.084       .  S
C824        C825   1.404       .  A
C825        C835   1.398       .  A
C825        C826   1.409       .  A
C826        C832   1.413       .  A
C826        C827   1.407       .  A
C827        C829   1.409       .  A
C827        C828   1.413       .  A
C828        C836   1.401       .  A
C829        C838   1.396       .  A
C829        C830   1.403       .  A
C830        H841   1.084       .  S
C830        C831   1.396       .  A
C831        H842   1.084       .  S
C831        C832   1.402       .  A
C832        C833   1.400       .  A
C833        H843   1.084       .  S
C833        C834   1.405       .  A
C834        C835   1.409       .  A
C836        H845   1.084       .  S
C836        C837   1.406       .  A
C837        C838   1.407       .  A
C838        H846   1.084       .  S
C847        H863   1.083       .  S
C847        C848   1.409       .  A
C847        C852   1.409       .  A
C848        H864   1.084       .  S
C848        C849   1.408       .  A
C849        C859   1.423       .  A
C849        C850   1.413       .  A
C850        C856   1.407       .  A
C850        C851   1.424       .  A
C851        C853   1.413       .  A
C851        C852   1.411       .  A
C852        C860   1.420       .  A
C853        C862   1.409       .  A
C853        C854   1.403       .  A
C854        H865   1.083       .  S
C854        C855   1.400       .  A
C855        H866   1.084       .  S
C855        C856   1.404       .  A
C856        C857   1.404       .  A
C857        H867   1.085       .  S
C857        C858   1.420       .  A
C858        C859   1.421       .  A
C859        H868   1.082   1_545  S
C860        H869   1.084       .  S
C860        C861   1.416       .  A
C861        C862   1.406       .  A
C862        H870   1.085       .  S
C871        H887   1.084       .  S
C871        C872   1.404       .  A
C871        C876   1.407       .  A
C872        H888   1.083       .  S
C872        C873   1.405       .  A
C873        C883   1.420       .  A
C873        C874   1.417       .  A
C874        C880   1.407       .  A
C874        C875   1.424       .  A
C875        C877   1.414       .  A
C875        C876   1.404       .  A
C876        C884   1.408       .  A
C877        C886   1.420       .  A
C877        C878   1.404       .  A
C878        H889   1.082       .  S
C878        C879   1.405       .  A
C879        C880   1.408       .  A
C880        C881   1.410       .  A
C881        C882   1.417       .  A
C882        C883   1.410       .  A
C883        H892   1.084       .  S
C884        H893   1.083       .  S
C884        C885   1.426       .  A
C885        C886   1.416       .  A
C886        H894   1.081       .  S
C895        H911   1.084       .  S
C895        C896   1.397       .  A
C895        C900   1.403       .  A
C896        H912   1.084       .  S
C896        C897   1.404       .  A
C897        C907   1.397       .  A
C898        C904   1.412       .  A
C898        C899   1.413       .  A
C899        C901   1.412       .  A
C900        C908   1.400       .  A
C901        C910   1.408       .  A
C901        C902   1.405       .  A
C902        H913   1.084       .  S
C902        C903   1.402       .  A
C903        H914   1.083       .  S
C903        C904   1.405       .  A
C904        C905   1.409       .  A
C905        H915   1.084       .  S
C905        C906   1.409       .  A
C907        H916   1.084       .  S
C908        H917   1.084       .  S
C909        C910   1.410       .  A
C910        H918   1.084       .  S
C919        H935   1.083       .  S
C919        C920   1.410       .  A
C919        C924   1.409       .  A
C920        H936   1.084       .  S
C920        C921   1.408       .  A
C921        C931   1.428       .  A
C921        C922   1.414       .  A
C922        C928   1.403       .  A
C922        C923   1.426       .  A
C923        C925   1.414       .  A
C923        C924   1.410       .  A
C924        C932   1.421       .  A
C925        C934   1.413       .  A
C925        C926   1.403       .  A
C926        H937   1.084       .  S
C926        C927   1.400       .  A
C927        H938   1.084       .  S
C927        C928   1.406       .  A
C928        C929   1.404       .  A
C929        H939   1.082       .  S
C929        C930   1.427       .  A
C930        C931   1.422       .  A
C931        H940   1.081       .  S
C932        H941   1.084       .  S
C932        C933   1.416       .  A
C933        C934   1.408       .  A
C934        H942   1.085       .  S
C943        H959   1.083       .  S
C943        C944   1.405       .  A
C943        C948   1.407       .  A
C944        H960   1.084       .  S
C944        C945   1.406       .  A
C945        C955   1.419       .  A
C945        C946   1.416       .  A
C946        C952   1.409       .  A
C946        C947   1.425       .  A
C947        C949   1.413       .  A
C947        C948   1.406       .  A
C948        C956   1.411       .  A
C949        C958   1.418       .  A
C949        C950   1.406       .  A
C950        H961   1.080       .  S
C950        C951   1.404       .  A
C951        C952   1.406       .  A
C952        C953   1.411       .  A
C953        C954   1.415       .  A
C954        C955   1.411       .  A
C955        H964   1.084       .  S
C956        H965   1.084       .  S
C956        C957   1.426       .  A
C957        C958   1.420       .  A
C958        H966   1.079       .  S
C967        H983   1.084       .  S
C967        C968   1.400       .  A
C967        C972   1.403       .  A
C968        H984   1.083       .  S
C968        C969   1.405   1_556  A
C969        C979   1.403       .  A
C969        C970   1.410   1_554  A
C970        C971   1.412       .  A
C971        C972   1.413       .  A
C972        C980   1.406       .  A
C973        C982   1.400       .  A
C973        C974   1.404       .  A
C974        H985   1.084       .  S
C974        C975   1.398       .  A
C975        H986   1.084       .  S
C975        C976   1.402       .  A
C976        C977   1.402       .  A
C977        H987   1.084       .  S
C978        C979   1.410       .  A
C979        H988   1.084       .  S
C980        H989   1.084       .  S
C980        C981   1.408       .  A
C982        H990   1.084       .  S
C991       H1007   1.084       .  S
C991        C992   1.399       .  A
C991        C996   1.404       .  A
C992       H1008   1.084       .  S
C992        C993   1.404       .  A
C993       C1003   1.404       .  A
C993        C994   1.408       .  A
C994       C1000   1.415       .  A
C994        C995   1.425       .  A
C995        C997   1.408       .  A
C995        C996   1.409       .  A
C996       C1004   1.408       .  A
C997       C1006   1.421       .  A
C997        C998   1.409       .  A
C998       H1009   1.083       .  S
C998        C999   1.411       .  A
C999       C1000   1.408       .  A
C1000      C1001   1.427       .  A
C1001      C1002   1.415       .  A
C1002      C1003   1.413       .  A
C1003      H1012   1.085       .  S
C1004      H1013   1.076   1_655  S
C1004      C1005   1.421       .  A
C1005      C1006   1.427       .  A
C1006      H1014   1.084       .  S
C1015      H1031   1.083       .  S
C1015      C1016   1.402       .  A
C1015      C1020   1.403       .  A
C1016      H1032   1.083       .  S
C1016      C1017   1.405       .  A
C1017      C1027   1.406       .  A
C1017      C1018   1.404       .  A
C1018      C1024   1.414       .  A
C1018      C1019   1.427       .  A
C1019      C1021   1.410       .  A
C1019      C1020   1.415       .  A
C1020      C1028   1.415       .  A
C1021      C1030   1.419       .  A
C1021      C1022   1.409       .  A
C1022      C1023   1.409       .  A
C1023      H1034   1.083       .  S
C1023      C1024   1.408       .  A
C1024      C1025   1.426       .  A
C1025      H1035   1.079   1_545  S
C1025      C1026   1.423       .  A
C1026      C1027   1.427       .  A
C1027      H1036   1.084       .  S
C1028      H1037   1.084       .  S
C1028      C1029   1.408       .  A
C1029      C1030   1.416       .  A
