geometry optimzed in LAMMPS
_audit_creation_date              2020-11-30 
_audit_creation_method            'lammps2cif' 
_symmetry_space_group_name_H-M    'P1' 
_symmetry_Int_Tables_number       1 
_symmetry_cell_setting            triclinic 
loop_ 
_symmetry_equiv_pos_as_xyz 
  x,y,z 
_cell_length_a                    46.13657017 
_cell_length_b                    46.52063837156679 
_cell_length_c                    46.59187142164612 
_cell_angle_alpha                 90.01575086333277 
_cell_angle_beta                  89.99357669890512 
_cell_angle_gamma                 90.06680462251988 
loop_ 
_atom_site_label 
_atom_site_type_symbol 
_atom_site_fract_x 
_atom_site_fract_y 
_atom_site_fract_z 
_atom_site_charge 
O1          O  0.95759538  0.00232244  0.94306365    -0.77700
C2          C  0.03703033  0.95457764  0.94281827     0.83400
O3          O  0.96166317  0.96130800  0.03718960    -0.78800
O4          O  0.06423049  0.98696443  0.02805871    -0.80300
O5          O  0.02850639  0.06964890  0.97459677    -0.80100
O6          O  0.96072477  0.04897487  0.95306503    -0.78700
Zn7        Zn  0.98307025  0.98052193  0.96949633     1.55700
O8          O  0.06477186  0.03785501  0.97697314    -0.80100
Cd9        Cd  0.99153184  0.04670006  0.98636581     1.59700
Cd10       Cd  0.99114196  0.99597052  0.03619417     1.59600
O11         O  0.97542455  0.06680349  0.02287022    -0.80100
O12         O  0.00275014  0.00576229  0.99556977    -1.90600
Cd13       Cd  0.04549554  0.99954018  0.98981289     1.59900
O14         O  0.97423091  0.03238916  0.05635223    -0.80000
O15         O  0.05465082  0.96764158  0.95936178    -0.78700
C16         C  0.95309265  0.94559732  0.01634474     0.83900
C17         C  0.95065920  0.02826797  0.93808804     0.83500
O18         O  0.00991048  0.95862997  0.94428231    -0.77600
C19         C  0.05531870  0.06321621  0.97232408     0.84300
O20         O  0.96013993  0.95108331  0.99054823    -0.77700
C21         C  0.97039040  0.05842224  0.04847642     0.84500
C22         C  0.05467910  0.98187754  0.05322905     0.84800
O23         O  0.02786347  0.98417860  0.05963477    -0.80100
O24         O  0.99672671  0.30530761  0.29046753    -0.77700
C25         C  0.93988844  0.29860274  0.22265792     0.83400
O26         O  0.95693873  0.20543882  0.29127223    -0.78800
O27         O  0.97668188  0.22229716  0.18591630    -0.80300
O28         O  0.06155514  0.27153396  0.22262479    -0.80100
O29         O  0.04233648  0.28980533  0.29027702    -0.78700
Zn30       Zn  0.97399311  0.27359652  0.27236616     1.55700
O31         O  0.02814284  0.27305433  0.18793896    -0.80100
Cd32       Cd  0.03894606  0.25789329  0.25883972     1.59700
Cd33       Cd  0.98676697  0.20878889  0.25725955     1.59600
O34         O  0.05852091  0.22040095  0.27232439    -0.80100
O35         O  0.99755802  0.24971229  0.24879617    -1.90600
Cd36       Cd  0.99005751  0.25919176  0.20741523     1.59900
O37         O  0.02386178  0.18686517  0.26922878    -0.80000
O38         O  0.95732610  0.29011711  0.20317511    -0.78700
C39         C  0.94877753  0.22514818  0.30854722     0.83900
C40         C  0.02304665  0.30779552  0.29807643     0.83500
O41         O  0.94329587  0.29181106  0.24886884    -0.77600
C42         C  0.05419558  0.27619038  0.19662843     0.84300
O43         O  0.95527520  0.25138866  0.30433416    -0.77700
C44         C  0.04996925  0.19440166  0.27422998     0.84500
C45         C  0.97042145  0.19677195  0.19384547     0.84800
O46         O  0.97185054  0.18885237  0.22006515    -0.80100
O47         O  0.74924582  0.29519622  0.44628172    -0.77700
C48         C  0.79556565  0.30385929  0.52764498     0.83400
O49         O  0.78833524  0.20474100  0.45755846    -0.78800
O50         O  0.76157965  0.21985175  0.55913616    -0.80300
O51         O  0.68030839  0.27395853  0.51998371    -0.80100
O52         O  0.70173861  0.28848835  0.45104964    -0.78700
Zn53       Zn  0.77042008  0.27355118  0.47598003     1.55700
O54         O  0.71226240  0.27262225  0.55604731    -0.80100
Cd55       Cd  0.70303196  0.25824325  0.48473642     1.59700
Cd56       Cd  0.75393771  0.20793226  0.48722372     1.59600
O57         O  0.68203231  0.22035999  0.47242759    -0.80100
O58         O  0.74422302  0.24916212  0.49643711    -1.90600
Cd59       Cd  0.75027838  0.25725580  0.53818903     1.59900
O60         O  0.71684397  0.18692622  0.47269581    -0.80000
O61         O  0.78277052  0.28755436  0.54556772    -0.78700
C62         C  0.80549291  0.22476930  0.44957397     0.83900
C63         C  0.72335791  0.30006001  0.43840333     0.83500
O64         O  0.79129393  0.30177193  0.50082467    -0.77600
C65         C  0.68697244  0.27779844  0.54630585     0.84300
O66         O  0.80103529  0.25084123  0.45635068    -0.77700
C67         C  0.69044775  0.19440393  0.46913002     0.84500
C68         C  0.76719181  0.19425865  0.55109099     0.84800
O69         O  0.76607030  0.18660798  0.52478948    -0.80100
O70         O  0.80310654  0.99832762  0.79138748    -0.77700
C71         C  0.72347896  0.95298865  0.81094099     0.83400
O72         O  0.79027760  0.95923237  0.70445863    -0.78800
O73         O  0.68604797  0.97055278  0.72438157    -0.80300
O74         O  0.72019998  0.06046473  0.76981116    -0.80100
O75         O  0.79022024  0.04424033  0.78753657    -0.78700
Zn76       Zn  0.77274930  0.97434671  0.77251822     1.55700
O77         O  0.68519479  0.02731531  0.76719153    -0.80100
Cd78       Cd  0.75721177  0.03926204  0.75714628     1.59700
Cd79       Cd  0.75645439  0.98871454  0.70820362     1.59600
O80         O  0.76908353  0.05975506  0.71937140    -0.80100
O81         O  0.74820998  0.99780126  0.74930278    -1.90600
Cd82       Cd  0.70669467  0.98908930  0.75918407     1.59900
O83         O  0.76706189  0.02572378  0.68563942    -0.80000
O84         O  0.70297457  0.96291430  0.79552936    -0.78700
C85         C  0.80078477  0.94238129  0.72334603     0.83900
C86         C  0.80709497  0.02476960  0.79706570     0.83500
O87         O  0.74995288  0.95636394  0.80410152    -0.77600
C88         C  0.69361719  0.05315842  0.77101725     0.84300
O89         O  0.79370403  0.94406003  0.74969210    -0.77700
C90         C  0.77106080  0.05175784  0.69326375     0.84500
C91         C  0.69377109  0.96642451  0.69841757     0.84800
O92         O  0.71934550  0.97188106  0.68949688    -0.80100
O93         O  0.30042718  0.95532831  0.25416225    -0.77700
C94         C  0.29502028  0.02259503  0.31240514     0.83400
O95         O  0.20017527  0.95813257  0.29274587    -0.78800
O96         O  0.21950570  0.06026922  0.27377680    -0.80300
O97         O  0.26716520  0.02750294  0.19042524    -0.80100
O98         O  0.29203435  0.96151608  0.20753090    -0.78700
Zn99       Zn  0.26930521  0.97363590  0.27690083     1.55700
O100        O  0.27106927  0.06077635  0.22482117    -0.80100
Cd101      Cd  0.25652065  0.98944066  0.21119547     1.59700
Cd102      Cd  0.20546031  0.98956604  0.26095661     1.59600
O103        O  0.22005286  0.97340927  0.19022959    -0.80100
O104        O  0.24710187  0.99807355  0.25253999    -1.90600
Cd105      Cd  0.25707873  0.03929252  0.26161359     1.59900
O106        O  0.18533935  0.97584960  0.22364970    -0.80000
O107        O  0.28688746  0.04271965  0.29562325    -0.78700
C108        C  0.21894804  0.94081975  0.30292440     0.83900
C109        C  0.30726672  0.95141281  0.22802453     0.83500
O110        O  0.28845717  0.99648388  0.30766639    -0.77600
C111        C  0.27226272  0.05323566  0.19848816     0.84300
O112        O  0.24570868  0.94303182  0.29672708    -0.77700
C113        C  0.19365713  0.97069690  0.19804174     0.84500
C114        C  0.19312805  0.05265529  0.27689273     0.84800
O115        O  0.18467917  0.02680589  0.27336585    -0.80100
O116        O  0.05049594  0.53894742  0.50320442    -0.77700
C117        C  0.97564895  0.55123551  0.55713219     0.83400
O118        O  0.03448631  0.44646193  0.53891340    -0.78800
O119        O  0.93346073  0.47034225  0.52540312    -0.80300
O120        O  0.96639217  0.52494074  0.44220049    -0.80100
O121        O  0.03728932  0.53835924  0.45734538    -0.78700
Zn122      Zn  0.02223670  0.51670606  0.52598411     1.55700
O123        O  0.93312786  0.52210925  0.47695085    -0.80100
Cd124      Cd  0.00358653  0.50833537  0.46076727     1.59700
Cd125      Cd  0.00345967  0.45431888  0.50715204     1.59600
O126        O  0.01443159  0.47219252  0.43710227    -0.80100
O127        O  0.99598396  0.49655538  0.50168434    -1.90600
Cd128      Cd  0.95520456  0.50727396  0.51294421     1.59900
O129        O  0.01719093  0.43605221  0.46864848    -0.80000
O130        O  0.95378077  0.53893002  0.54562958    -0.78700
C131        C  0.04801494  0.46435657  0.55471771     0.83900
C132        C  0.05411009  0.54677152  0.47735935     0.83500
O133        O  0.00133656  0.54423404  0.55043642    -0.77600
C134        C  0.94044702  0.52787167  0.45116668     0.84300
O135        O  0.04468600  0.49127755  0.55208323    -0.77700
C136        C  0.01923134  0.44588204  0.44313944     0.84500
C137        C  0.93989395  0.44366172  0.52588019     0.84800
O138        O  0.96512168  0.43437377  0.51953094    -0.80100
O139        O  0.44761787  0.30062597  0.74964716    -0.77700
C140        C  0.45032404  0.22840139  0.80619510     0.83400
O141        O  0.54724699  0.29443364  0.78650114    -0.78800
O142        O  0.52911142  0.19336168  0.76645460    -0.80300
O143        O  0.47475550  0.22414120  0.68634611    -0.80100
O144        O  0.45353521  0.29198215  0.70304705    -0.78700
Zn145      Zn  0.47635451  0.27786322  0.77153668     1.55700
O146        O  0.47436568  0.19161012  0.72162822    -0.80100
Cd147      Cd  0.48752194  0.26232995  0.70587021     1.59700
Cd148      Cd  0.54108713  0.26457916  0.75310955     1.59600
O149        O  0.52277873  0.27814722  0.68329443    -0.80100
O150        O  0.49898606  0.25449551  0.74679140    -1.90600
Cd151      Cd  0.49041067  0.21325370  0.75688383     1.59900
O152        O  0.55857113  0.28104916  0.71553135    -0.80000
O153        O  0.46155103  0.20822862  0.79143581    -0.78700
C154        C  0.52752564  0.30700832  0.80097112     0.83900
C155        C  0.44033914  0.30442552  0.72362020     0.83500
O156        O  0.45470967  0.25460094  0.79999906    -0.77600
C157        C  0.47055833  0.19860009  0.69546061     0.84300
O158        O  0.50081564  0.30297465  0.79577787    -0.77700
C159        C  0.54885373  0.28422817  0.69008392     0.84500
C160        C  0.55559914  0.20116572  0.76719755     0.84800
O161        O  0.56356940  0.22709405  0.76280550    -0.80100
O162        O  0.79430090  0.75127236  0.94355632    -0.77700
C163        C  0.72580834  0.81233494  0.95113778     0.83400
O164        O  0.79563527  0.79288348  0.04183076    -0.78800
O165        O  0.68906946  0.77502169  0.02815711    -0.80300
O166        O  0.72128585  0.69200783  0.97629629    -0.80100
O167        O  0.79088972  0.70663309  0.96044208    -0.78700
Zn168      Zn  0.77495207  0.77527746  0.97372371     1.55700
O169        O  0.68751398  0.72637168  0.97532094    -0.80100
Cd170      Cd  0.75854213  0.71198245  0.99105491     1.59700
Cd171      Cd  0.76082308  0.76351172  0.03994237     1.59600
O172        O  0.77068394  0.69148252  0.02839710    -0.80100
O173        O  0.75082439  0.75342447  0.99900496    -1.90600
Cd174      Cd  0.70924270  0.76260701  0.99043563     1.59900
O175        O  0.77275097  0.72613000  0.06159752    -0.80000
O176        O  0.70560680  0.79668327  0.96140199    -0.78700
C177        C  0.81202297  0.80098647  0.02124174     0.83900
C178        C  0.80090737  0.72477694  0.94253522     0.83500
O179        O  0.75240600  0.80655260  0.95517813    -0.77600
C180        C  0.69539321  0.70033933  0.97160895     0.84300
O181        O  0.80669295  0.79421839  0.99537288    -0.77700
C182        C  0.77507125  0.69983106  0.05409443     0.84500
C183        C  0.69747807  0.78077171  0.05361630     0.84800
O184        O  0.72405524  0.77900972  0.06115251    -0.80100
O185        O  0.30721623  0.25476468  0.95762725    -0.77700
C186        C  0.23409631  0.31338318  0.95279606     0.83400
O187        O  0.29522660  0.29272918  0.05324112    -0.78800
O188        O  0.19187132  0.27845455  0.03006792    -0.80300
O189        O  0.22508643  0.19517355  0.97683900    -0.80100
O190        O  0.29648558  0.20855451  0.96375218    -0.78700
Zn191      Zn  0.28167194  0.27858485  0.98245943     1.55700
O192        O  0.19200864  0.23019565  0.97758219    -0.80100
Cd193      Cd  0.26254966  0.21340446  0.99362678     1.59700
Cd194      Cd  0.26217042  0.26256902  0.04580982     1.59600
O195        O  0.27189771  0.19066140  0.03110846    -0.80100
O196        O  0.25523564  0.25499256  0.00376929    -1.90600
Cd197      Cd  0.21424966  0.26562693  0.99345823     1.59900
O198        O  0.27258173  0.22408200  0.06566246    -0.80000
O199        O  0.21316969  0.29883329  0.96326048    -0.78700
C200        C  0.31193998  0.30427634  0.03474866     0.83900
C201        C  0.31172769  0.22836159  0.95225761     0.83500
O202        O  0.26041082  0.30771104  0.95877783    -0.77600
C203        C  0.19931352  0.20421840  0.97271598     0.84300
O204        O  0.30881295  0.29983951  0.00804975    -0.77700
C205        C  0.27475293  0.19801389  0.05738585     0.84500
C206        C  0.19881038  0.28134151  0.05643449     0.84800
O207        O  0.22449096  0.27679242  0.06543611    -0.80100
O208        O  0.75193012  0.45295135  0.29612397    -0.77700
C209        C  0.80759122  0.44966511  0.22675959     0.83400
O210        O  0.78880261  0.55013916  0.29204164    -0.78800
O211        O  0.77722013  0.53229254  0.18877228    -0.80300
O212        O  0.69119495  0.48051344  0.21744673    -0.80100
O213        O  0.70527343  0.45833385  0.28586006    -0.78700
Zn214      Zn  0.77575747  0.48093624  0.27494475     1.55700
O215        O  0.72698164  0.48166782  0.18513652    -0.80100
Cd216      Cd  0.71004841  0.49226195  0.25628563     1.59700
Cd217      Cd  0.75910906  0.54440354  0.25871776     1.59600
O218        O  0.68742377  0.52806146  0.27059538    -0.80100
O219        O  0.75198443  0.50295016  0.24953332    -1.90600
Cd220      Cd  0.76328289  0.49471532  0.20848129     1.59900
O221        O  0.72054599  0.56319041  0.27091322    -0.80000
O222        O  0.79514403  0.46260449  0.20600931    -0.78700
C223        C  0.80079089  0.53149503  0.30814494     0.83900
C224        C  0.72568362  0.44540085  0.29902925     0.83500
O225        O  0.80260868  0.45617606  0.25279665    -0.77600
C226        C  0.70041071  0.47775611  0.19175506     0.84300
O227        O  0.79725829  0.50467268  0.30417343    -0.77700
C228        C  0.69466036  0.55426869  0.27443392     0.84500
C229        C  0.77882274  0.55843962  0.19690875     0.84800
O230        O  0.77316424  0.56616313  0.22256419    -0.80100
O231        O  0.44713678  0.94419791  0.51314853    -0.77700
C232        C  0.43406671  0.01837113  0.45733030     0.83400
O233        O  0.53744041  0.95469833  0.46441422    -0.78800
O234        O  0.52147934  0.05797105  0.48004633    -0.80300
O235        O  0.47405968  0.02775314  0.56773658    -0.80100
O236        O  0.45663345  0.95820355  0.55769995    -0.78700
Zn237      Zn  0.46828696  0.97056252  0.48675099     1.55700
O238        O  0.47190814  0.05945334  0.53176666    -0.80100
Cd239      Cd  0.48725263  0.99002538  0.54861211     1.59700
Cd240      Cd  0.53536320  0.98758222  0.49534260     1.59600
O241        O  0.52561553  0.97754813  0.56752754    -0.80100
O242        O  0.49399274  0.99624224  0.50642329    -1.90600
Cd243      Cd  0.48465443  0.03696801  0.49541146     1.59900
O244        O  0.55781173  0.97449232  0.53175303    -0.80000
O245        O  0.45062552  0.03871947  0.46566351    -0.78700
C246        C  0.51661845  0.93974895  0.45422640     0.83900
C247        C  0.44390299  0.94157709  0.54004435     0.83500
O248        O  0.43857136  0.99235928  0.46449232    -0.77600
C249        C  0.46924252  0.05297376  0.55824888     0.84300
O250        O  0.49039466  0.94455264  0.46106393    -0.77700
C251        C  0.55103221  0.97225657  0.55823179     0.84500
C252        C  0.54782532  0.05042748  0.47633681     0.84800
O253        O  0.55629191  0.02464969  0.48062393    -0.80100
O254        O  0.00942068  0.70385540  0.70472808    -0.77700
C255        C  0.06234235  0.77906378  0.70240072     0.83400
O256        O  0.04093194  0.71557092  0.80261364    -0.78800
O257        O  0.02422648  0.81737316  0.77817770    -0.80300
O258        O  0.94114137  0.77815017  0.72765478    -0.80100
O259        O  0.96188117  0.70924686  0.71037550    -0.78700
Zn260      Zn  0.03061307  0.72953588  0.73185379     1.55700
O261        O  0.97347512  0.81401805  0.72685690    -0.80100
Cd262      Cd  0.96303786  0.74190424  0.74181635     1.59700
Cd263      Cd  0.01036157  0.74757806  0.79472910     1.59600
O264        O  0.94037943  0.72850682  0.77806525    -0.80100
O265        O  0.00387059  0.75345308  0.75243921    -1.90600
Cd266      Cd  0.01150801  0.79478329  0.74161894     1.59900
O267        O  0.97181806  0.73509827  0.81396663    -0.80000
O268        O  0.04488282  0.79852613  0.71099206    -0.78700
C269        C  0.05593383  0.70102187  0.78486236     0.83900
C270        C  0.98348171  0.69717255  0.69822096     0.83500
O271        O  0.05923610  0.75291081  0.70967989    -0.77600
C272        C  0.94772644  0.80448841  0.72348334     0.84300
O273        O  0.05369230  0.70441715  0.75792360    -0.77700
C274        C  0.94673841  0.72813843  0.80471426     0.84500
C275        C  0.02840505  0.81091716  0.80450681     0.84800
O276        O  0.02465101  0.78546220  0.81403104    -0.80100
O277        O  0.45302882  0.80256433  0.25241016    -0.77700
C278        C  0.44001598  0.72033568  0.29690374     0.83400
O279        O  0.54213100  0.79189982  0.29303598    -0.78800
O280        O  0.52747549  0.68913246  0.26916522    -0.80300
O281        O  0.47672665  0.72700452  0.18498295    -0.80100
O282        O  0.46099632  0.79625021  0.20571245    -0.78700
Zn283      Zn  0.47315615  0.77216096  0.27430715     1.55700
O284        O  0.47870460  0.69120830  0.21689492    -0.80100
Cd285      Cd  0.49074909  0.76239849  0.20837293     1.59700
Cd286      Cd  0.54005348  0.76132797  0.25964279     1.59600
O287        O  0.52908848  0.77486376  0.18871638    -0.80100
O288        O  0.49869850  0.75147126  0.24946124    -1.90600
Cd289      Cd  0.49037699  0.70969854  0.25560974     1.59900
O290        O  0.56254401  0.77554229  0.22336031    -0.80000
O291        O  0.45725006  0.70231215  0.28540161    -0.78700
C292        C  0.52144939  0.79997605  0.30938529     0.83900
C293        C  0.44932415  0.80993178  0.22642829     0.83500
O294        O  0.44298541  0.74726054  0.29322834    -0.77600
C295        C  0.47439580  0.70047204  0.19148097     0.84300
O296        O  0.49539089  0.79231871  0.30486067    -0.77700
C297        C  0.55510737  0.77869438  0.19713919     0.84500
C298        C  0.55322800  0.69751008  0.27445967     0.84800
O299        O  0.56091805  0.72382892  0.27252624    -0.80100
O300        O  0.20782352  0.74588955  0.55466191    -0.77700
C301        C  0.19517223  0.69163855  0.47960012     0.83400
O302        O  0.30031881  0.70312719  0.53406928    -0.78800
O303        O  0.27351618  0.72287598  0.43484815    -0.80300
O304        O  0.22901692  0.80912950  0.47190503    -0.80100
O305        O  0.21204210  0.79170172  0.54170384    -0.78700
Zn306      Zn  0.22989411  0.72224953  0.52642418     1.55700
O307        O  0.22505476  0.77436820  0.43900640    -0.80100
Cd308      Cd  0.24291074  0.78719276  0.50877388     1.59700
Cd309      Cd  0.29319943  0.73561932  0.50399842     1.59600
O310        O  0.28132916  0.80589372  0.52327209    -0.80100
O311        O  0.25101435  0.74555001  0.49960033    -1.90600
Cd312      Cd  0.23835191  0.73691769  0.45914630     1.59900
O313        O  0.31512638  0.77178697  0.51797240    -0.80000
O314        O  0.20540727  0.70570539  0.45836405    -0.78700
C315        C  0.28218529  0.69097755  0.55072137     0.83900
C316        C  0.20208574  0.77233647  0.55841342     0.83500
O317        O  0.20306635  0.69664819  0.50526462    -0.77600
C318        C  0.22333160  0.80071822  0.44638424     0.84300
O319        O  0.25534920  0.69680874  0.54990973    -0.77700
C320        C  0.30752899  0.79719612  0.52501765     0.84500
C321        C  0.30032625  0.71884360  0.44022938     0.84800
O322        O  0.31093763  0.72246534  0.46524207    -0.80100
O323        O  0.28586807  0.44522472  0.74804731    -0.77700
C324        C  0.30505497  0.52376897  0.79548835     0.83400
O325        O  0.19994519  0.46241738  0.79428722    -0.78800
O326        O  0.21886482  0.56303042  0.77141025    -0.80300
O327        O  0.26827522  0.52636301  0.68547736    -0.80100
O328        O  0.28146653  0.45540336  0.70177195    -0.78700
Zn329      Zn  0.26839314  0.47618049  0.77082600     1.55700
O330        O  0.26870375  0.56050049  0.71931759    -0.80100
Cd331      Cd  0.25253899  0.49020382  0.70687820     1.59700
Cd332      Cd  0.20318321  0.49168831  0.75975230     1.59600
O333        O  0.21341177  0.47862814  0.68844272    -0.80100
O334        O  0.24445645  0.49996866  0.74827891    -1.90600
Cd335      Cd  0.25502537  0.54092153  0.75694193     1.59900
O336        O  0.18062585  0.47731137  0.72393011    -0.80000
O337        O  0.28852978  0.54408570  0.78722954    -0.78700
C338        C  0.22094937  0.45313100  0.80949248     0.83900
C339        C  0.29098379  0.43946134  0.72193179     0.83500
O340        O  0.30022405  0.49782483  0.78862695    -0.77600
C341        C  0.27274797  0.55225228  0.69348811     0.84300
O342        O  0.24706176  0.45819479  0.80272106    -0.77700
C343        C  0.18768638  0.47427726  0.69758831     0.84500
C344        C  0.19264449  0.55560759  0.77601222     0.84800
O345        O  0.18381099  0.52981447  0.77265551    -0.80100
O346        O  0.50223947  0.44941302  0.95067622    -0.77700
C347        C  0.44952134  0.44870066  0.02492569     0.83400
O348        O  0.45809157  0.54503963  0.95272491    -0.78800
O349        O  0.48038148  0.53462263  0.05608914    -0.80300
O350        O  0.56500198  0.48277675  0.02283271    -0.80100
O351        O  0.54846706  0.46193083  0.95521677    -0.78700
Zn352      Zn  0.47784926  0.47678752  0.97286435     1.55700
O353        O  0.53110242  0.48380647  0.05707484    -0.80100
Cd354      Cd  0.54309547  0.49475909  0.98566776     1.59700
Cd355      Cd  0.49029433  0.54348111  0.98445360     1.59600
O356        O  0.56269029  0.53204384  0.97118380    -0.80100
O357        O  0.50108397  0.50284192  0.99484555    -1.90600
Cd358      Cd  0.49315793  0.49653891  0.03674031     1.59900
O359        O  0.52702884  0.56456213  0.97007639    -0.80000
O360        O  0.46174553  0.46482703  0.04344617    -0.78700
C361        C  0.44686778  0.52407211  0.93898435     0.83900
C362        C  0.52886488  0.44557978  0.94494658     0.83500
O363        O  0.45378978  0.45176794  0.99814925    -0.77600
C364        C  0.55721228  0.47979651  0.04894326     0.84300
O365        O  0.45302176  0.49807214  0.94486351    -0.77700
C366        C  0.55354350  0.55752889  0.96682724     0.84500
C367        C  0.47570892  0.56005306  0.04698787     0.84800
O368        O  0.47756453  0.56659444  0.02047453    -0.80100
C369        C  0.40362557  0.51926815  0.87607791     0.21200
C370        C  0.39264316  0.50525307  0.85196999    -0.38700
C371        C  0.36930271  0.51864766  0.83858646     0.20200
C372        C  0.35739306  0.54414640  0.84832150     0.22800
C373        C  0.36862030  0.55843290  0.87263435    -0.39200
C374        C  0.39241945  0.54498474  0.88610629     0.21600
N375        N  0.42450230  0.50949324  0.89335805    -0.32500
C376        C  0.42710294  0.52898069  0.91472032    -0.10000
C377        C  0.40765964  0.55176316  0.91091463    -0.28800
N378        N  0.33352505  0.55077892  0.83291341    -0.45400
C379        C  0.33050922  0.52905358  0.81364162    -0.04700
C380        C  0.35255420  0.50891529  0.81648029    -0.22100
H381        H  0.40104806  0.48477704  0.84473421     0.19700
H382        H  0.35904218  0.57797168  0.88091959     0.18500
H383        H  0.40419452  0.56992150  0.92502062     0.14800
H384        H  0.35492612  0.48877676  0.80505850     0.14700
H385        H  0.43589652  0.49032302  0.89107894     0.32800
H386        H  0.31925288  0.56784029  0.83646792     0.35600
C387        C  0.29143261  0.59361815  0.63137494     0.21200
C388        C  0.29505814  0.59908679  0.60191040    -0.38700
C389        C  0.29579415  0.62821921  0.59394143     0.20200
C390        C  0.29293068  0.65013261  0.61386279     0.22800
C391        C  0.28946921  0.64467532  0.64324813    -0.39200
C392        C  0.28893153  0.61564936  0.65119290     0.21600
N393        N  0.28724824  0.56796608  0.64409190    -0.32500
C394        C  0.28197517  0.57380538  0.67215377    -0.10000
C395        C  0.28316898  0.60329581  0.67740281    -0.28800
N396        N  0.29048208  0.67566216  0.60069798    -0.45400
C397        C  0.29191323  0.67015098  0.57220700    -0.04700
C398        C  0.29535393  0.64080223  0.56707877    -0.22100
H399        H  0.29583219  0.58195022  0.58621296     0.19700
H400        H  0.28602533  0.66177076  0.65863705     0.18500
H401        H  0.27860569  0.61432249  0.69735848     0.14800
H402        H  0.29461273  0.62992019  0.54655527     0.14700
H403        H  0.28665421  0.54789678  0.63407187     0.32800
H404        H  0.28576336  0.69535715  0.61036837     0.35600
C405        C  0.46576747  0.65978570  0.12691020     0.21200
C406        C  0.46735307  0.65430074  0.09725644    -0.38700
C407        C  0.46647758  0.62516525  0.08923232     0.20200
C408        C  0.46437892  0.60329231  0.10927368     0.22800
C409        C  0.46286671  0.60876831  0.13879888    -0.39200
C410        C  0.46358349  0.63777074  0.14677493     0.21600
N411        N  0.46824881  0.68533716  0.14027225    -0.32500
C412        C  0.46786113  0.67938482  0.16879954    -0.10000
C413        C  0.46474842  0.64997812  0.17361363    -0.28800
N414        N  0.46603124  0.57746957  0.09654616    -0.45400
C415        C  0.46926407  0.58273557  0.06813472    -0.04700
C416        C  0.46944703  0.61228777  0.06266728    -0.22100
H417        H  0.46993928  0.67136640  0.08167727     0.19700
H418        H  0.46210139  0.59162891  0.15449141     0.18500
H419        H  0.46502462  0.63885528  0.19401655     0.14800
H420        H  0.47291814  0.62288179  0.04227268     0.14700
H421        H  0.47157610  0.70532932  0.13062533     0.32800
H422        H  0.46618490  0.55744155  0.10675964     0.35600
C423        C  0.33877658  0.71072478  0.37417983     0.21200
C424        C  0.34495599  0.71708095  0.34538192    -0.38700
C425        C  0.37325744  0.71096110  0.33623695     0.20200
C426        C  0.39379247  0.69888398  0.35423201     0.22800
C427        C  0.38766797  0.69276810  0.38316217    -0.39200
C428        C  0.35947324  0.69939422  0.39246144     0.21600
N429        N  0.31449461  0.71737612  0.38866886    -0.32500
C430        C  0.31989941  0.71086593  0.41651132    -0.10000
C431        C  0.34769355  0.69942958  0.41971009    -0.28800
N432        N  0.41987691  0.69809548  0.34126715    -0.45400
C433        C  0.41601738  0.71034189  0.31513737    -0.04700
C434        C  0.38723021  0.71850041  0.31120811    -0.22100
H435        H  0.32935874  0.72756430  0.33155611     0.19700
H436        H  0.40412100  0.68495764  0.39775624     0.18500
H437        H  0.35839242  0.69347658  0.43950522     0.14800
H438        H  0.37829815  0.73052273  0.29340227     0.14700
H439        H  0.29611700  0.72756931  0.38044807     0.32800
H440        H  0.43955322  0.69213951  0.35057491     0.35600
C441        C  0.12783927  0.77864258  0.66210600     0.21200
C442        C  0.15345495  0.76582975  0.65244334    -0.38700
C443        C  0.16373797  0.77539805  0.62590170     0.20200
C444        C  0.14991981  0.79652063  0.61009259     0.22800
C445        C  0.12418218  0.80958348  0.61993957    -0.39200
C446        C  0.11363009  0.79976564  0.64662353     0.21600
N447        N  0.11200757  0.77033736  0.68473261    -0.32500
C448        C  0.08732631  0.78601906  0.68392916    -0.10000
C449        C  0.08764349  0.80506875  0.66069633    -0.28800
N450        N  0.16280131  0.79963343  0.58423466    -0.45400
C451        C  0.18448347  0.77991160  0.58368668    -0.04700
C452        C  0.18577114  0.76464058  0.60933586    -0.22100
H453        H  0.16371948  0.74840616  0.66399292     0.19700
H454        H  0.11245463  0.82509008  0.60711867     0.18500
H455        H  0.07020358  0.81888317  0.65360129     0.14800
H456        H  0.19998090  0.74687986  0.61452674     0.14700
H457        H  0.11690322  0.75366468  0.69890113     0.32800
H458        H  0.15610677  0.81287428  0.56739647     0.35600
C459        C  0.09645373  0.63793151  0.79801861     0.21200
C460        C  0.10130764  0.60819322  0.79648981    -0.38700
C461        C  0.13033125  0.59974134  0.79358341     0.20200
C462        C  0.15283190  0.61941069  0.79224221     0.22800
C463        C  0.14799012  0.64914175  0.79370384    -0.39200
C464        C  0.11897158  0.65759792  0.79666737     0.21600
N465        N  0.07072776  0.65143335  0.79713262    -0.32500
C466        C  0.07690163  0.67983521  0.79512112    -0.10000
C467        C  0.10673187  0.68451953  0.79484363    -0.28800
N468        N  0.17809652  0.60607033  0.78697778    -0.45400
C469        C  0.17161761  0.57772250  0.78475477    -0.04700
C470        C  0.14206392  0.57291968  0.78897077    -0.22100
H471        H  0.08367423  0.59282838  0.79621654     0.19700
H472        H  0.16539163  0.66458633  0.79132318     0.18500
H473        H  0.11787232  0.70460880  0.79080938     0.14800
H474        H  0.13051223  0.55271828  0.78736581     0.14700
H475        H  0.05035429  0.64183434  0.79528691     0.32800
H476        H  0.19828381  0.61580202  0.78378497     0.35600
C477        C  0.53855621  0.88873177  0.40070951     0.21200
C478        C  0.55360318  0.87795880  0.37661260    -0.38700
C479        C  0.54118907  0.85363319  0.36325816     0.20200
C480        C  0.51584228  0.84130605  0.37337038     0.22800
C481        C  0.50100010  0.85190848  0.39723329    -0.39200
C482        C  0.51322200  0.87600033  0.41032062     0.21600
N483        N  0.54423463  0.91278701  0.41598160    -0.32500
C484        C  0.52195203  0.91528563  0.43488835    -0.10000
C485        C  0.50247027  0.89261338  0.43207202    -0.28800
N486        N  0.50693805  0.82012996  0.35608801    -0.45400
C487        C  0.52650511  0.81856899  0.33452017    -0.04700
C488        C  0.54852401  0.83898958  0.33827971    -0.22100
H489        H  0.57287228  0.88830820  0.36830244     0.19700
H490        H  0.48067954  0.84272328  0.40440107     0.18500
H491        H  0.48236527  0.88940083  0.44363647     0.14800
H492        H  0.56629436  0.84368147  0.32385539     0.14700
H493        H  0.56121374  0.92730527  0.41276163     0.32800
H494        H  0.48791464  0.80817718  0.35824516     0.35600
C495        C  0.35064329  0.85606664  0.54997521     0.16400
C496        C  0.35620224  0.88444686  0.55881244    -0.38700
C497        C  0.38521660  0.89349554  0.55690956     0.20200
C498        C  0.40688073  0.87554273  0.54684281     0.22800
C499        C  0.40138039  0.84716417  0.53833407    -0.39200
C500        C  0.37251569  0.83813570  0.54036729     0.21600
N501        N  0.32462923  0.84339160  0.54670292    -0.32500
C502        C  0.33008155  0.81727883  0.53492554    -0.10000
C503        C  0.35972970  0.81310452  0.53101518    -0.28800
N504        N  0.43151204  0.89026956  0.54271502    -0.45400
C505        C  0.42573516  0.91780501  0.55012390    -0.04700
C506        C  0.39713002  0.92067988  0.55943985    -0.22100
H507        H  0.33897411  0.89891732  0.56508797     0.19700
H508        H  0.41808754  0.83364037  0.52920265     0.18500
H509        H  0.37032738  0.79496112  0.52095350     0.14800
H510        H  0.38569063  0.94047019  0.56396044     0.14700
H511        H  0.30436148  0.85241188  0.55106713     0.32800
H512        H  0.45030683  0.88267046  0.53280484     0.35600
C513        C  0.63782183  0.46655848  0.14784616     0.21200
C514        C  0.60801678  0.46642157  0.14189234    -0.38700
C515        C  0.60042841  0.46705029  0.11277023     0.20200
C516        C  0.62095443  0.46765462  0.09111278     0.22800
C517        C  0.65085724  0.46770003  0.09707005    -0.39200
C518        C  0.65847276  0.46720132  0.12630050     0.21600
N519        N  0.65035147  0.46869953  0.17378108    -0.32500
C520        C  0.67923225  0.47100098  0.16891553    -0.10000
C521        C  0.68519103  0.46987213  0.13950009    -0.28800
N522        N  0.60809464  0.47077573  0.06536038    -0.45400
C523        C  0.57922000  0.47246613  0.07074073    -0.04700
C524        C  0.57363642  0.46991665  0.10005713    -0.22100
H525        H  0.59189073  0.46703945  0.15875656     0.19700
H526        H  0.66696304  0.46925619  0.08024789     0.18500
H527        H  0.70602816  0.47242930  0.12912924     0.14800
H528        H  0.55290134  0.47168675  0.11078311     0.14700
H529        H  0.63973101  0.47006133  0.19353514     0.32800
H530        H  0.61841084  0.47316014  0.04555174     0.35600
C531        C  0.59503544  0.63414629  0.28624009     0.21200
C532        C  0.60052623  0.60446763  0.28599319    -0.38700
C533        C  0.62985040  0.59655604  0.28640987     0.20200
C534        C  0.65194175  0.61671944  0.28706473     0.22800
C535        C  0.64644885  0.64634767  0.28739051    -0.39200
C536        C  0.61717476  0.65424880  0.28695315     0.21600
N537        N  0.56925314  0.64716721  0.28323698    -0.32500
C538        C  0.57505176  0.67572686  0.28184522    -0.10000
C539        C  0.60469310  0.68099335  0.28436460    -0.28800
N540        N  0.67785423  0.60392925  0.28455595    -0.45400
C541        C  0.67230237  0.57543356  0.28199910    -0.04700
C542        C  0.64259468  0.56992379  0.28339492    -0.22100
H543        H  0.58329100  0.58874989  0.28432322     0.19700
H544        H  0.66372644  0.66209642  0.28676055     0.18500
H545        H  0.61575476  0.70145256  0.28263866     0.14800
H546        H  0.63173178  0.54947844  0.28059772     0.14700
H547        H  0.54913790  0.63715077  0.28074556     0.32800
H548        H  0.69796433  0.61413912  0.28298799     0.35600
C549        C  0.20902830  0.36583959  0.90213931     0.21200
C550        C  0.19179360  0.37754188  0.88001295    -0.38700
C551        C  0.20328572  0.40194395  0.86607270     0.20200
C552        C  0.22971563  0.41362276  0.87400832     0.22800
C553        C  0.24674997  0.40205850  0.89592629    -0.39200
C554        C  0.23553625  0.37772543  0.90942980     0.21600
N555        N  0.20435980  0.34156402  0.91731088    -0.32500
C556        C  0.22837870  0.33802544  0.93381237    -0.10000
C557        C  0.24813545  0.36021022  0.92949865    -0.28800
N558        N  0.23762150  0.43450918  0.85596037    -0.45400
C559        C  0.21650565  0.43627888  0.83588355    -0.04700
C560        C  0.19427338  0.41660857  0.84165433    -0.22100
H561        H  0.17165583  0.36765324  0.87331594     0.19700
H562        H  0.26795345  0.41058818  0.90112227     0.18500
H563        H  0.26931345  0.36273361  0.93919282     0.14800
H564        H  0.17556357  0.41190371  0.82845257     0.14700
H565        H  0.18660748  0.32768083  0.91567861     0.32800
H566        H  0.25729125  0.44562711  0.85620697     0.35600
C567        C  0.37696404  0.34457281  0.03724113     0.21200
C568        C  0.40332822  0.35348545  0.02546199    -0.38700
C569        C  0.41218353  0.38125933  0.03263396     0.20200
C570        C  0.39626836  0.39903581  0.05050778     0.22800
C571        C  0.36963814  0.39005630  0.06237842    -0.39200
C572        C  0.36058078  0.36203619  0.05502495     0.21600
N573        N  0.36235488  0.32071411  0.03025623    -0.32500
C574        C  0.33630439  0.32268232  0.04340546    -0.10000
C575        C  0.33439842  0.34801455  0.05947616    -0.28800
N576        N  0.40840824  0.42543205  0.05167951    -0.45400
C577        C  0.43174258  0.42417835  0.03397354    -0.04700
C578        C  0.43478547  0.39703624  0.02190954    -0.22100
H579        H  0.41528371  0.34030826  0.01041332     0.19700
H580        H  0.35629058  0.40430060  0.07511774     0.18500
H581        H  0.31543878  0.35644774  0.07024074     0.14800
H582        H  0.45059764  0.39024631  0.00613368     0.14700
H583        H  0.36879522  0.30509443  0.01550190     0.32800
H584        H  0.40032965  0.44355105  0.06223542     0.35600
C585        C  0.63218812  0.65815191  0.95782962     0.21200
C586        C  0.60242948  0.65192828  0.95843817    -0.38700
C587        C  0.59507715  0.62272437  0.95666559     0.20200
C588        C  0.61578505  0.60130776  0.95456778     0.22800
C589        C  0.64553918  0.60752375  0.95388501    -0.39200
C590        C  0.65289025  0.63674106  0.95559581     0.21600
N591        N  0.64478813  0.68387787  0.96204762    -0.32500
C592        C  0.67370735  0.67878224  0.96283117    -0.10000
C593        C  0.67959095  0.64966966  0.95852919    -0.28800
N594        N  0.60338976  0.57520628  0.95614315    -0.45400
C595        C  0.57460515  0.58005189  0.95938845    -0.04700
C596        C  0.56856539  0.60942478  0.95951111    -0.22100
H597        H  0.58624769  0.66850255  0.96135874     0.19700
H598        H  0.66179999  0.59077681  0.95338444     0.18500
H599        H  0.70046667  0.63911268  0.95943504     0.14800
H600        H  0.54786161  0.61965965  0.96333527     0.14700
H601        H  0.63428654  0.70337534  0.96597073     0.32800
H602        H  0.61402936  0.55540689  0.95668355     0.35600
C603        C  0.65465332  0.79349857  0.11642983     0.21200
C604        C  0.64892654  0.79434569  0.14607552    -0.38700
C605        C  0.61958769  0.79225373  0.15399806     0.20200
C606        C  0.59768231  0.78961169  0.13387329     0.22800
C607        C  0.60337643  0.78882838  0.10429950    -0.39200
C608        C  0.63263919  0.79088982  0.09641224     0.21600
N609        N  0.68075081  0.79211347  0.10354214    -0.32500
C610        C  0.67526983  0.78830543  0.07516950    -0.10000
C611        C  0.64548692  0.78784147  0.06991592    -0.28800
N612        N  0.57192920  0.78578841  0.14678940    -0.45400
C613        C  0.57732843  0.78578586  0.17540830    -0.04700
C614        C  0.60684793  0.78993454  0.18076123    -0.22100
H615        H  0.66612258  0.79535281  0.16184365     0.19700
H616        H  0.58635613  0.78565635  0.08862245     0.18500
H617        H  0.63469474  0.78365956  0.04970930     0.14800
H618        H  0.61769792  0.78979636  0.20135480     0.14700
H619        H  0.70096628  0.79194088  0.11362925     0.32800
H620        H  0.55208197  0.78204103  0.13669068     0.35600
C621        C  0.78708602  0.65787396  0.11720595     0.21200
C622        C  0.78766231  0.65218276  0.14679115    -0.38700
C623        C  0.78863758  0.62302902  0.15448597     0.20200
C624        C  0.78901834  0.60123944  0.13424202     0.22800
C625        C  0.78835508  0.60692396  0.10469283    -0.39200
C626        C  0.78739126  0.63603816  0.09701368     0.21600
N627        N  0.78398898  0.68360201  0.10442081    -0.32500
C628        C  0.78208240  0.67803678  0.07590790    -0.10000
C629        C  0.78433474  0.64862855  0.07046576    -0.28800
N630        N  0.78748949  0.57538144  0.14696950    -0.45400
C631        C  0.78580258  0.58068558  0.17552913    -0.04700
C632        C  0.78673529  0.61017377  0.18107316    -0.22100
H633        H  0.78638178  0.66914394  0.16264333     0.19700
H634        H  0.78758989  0.58990183  0.08886710     0.18500
H635        H  0.78248139  0.63780677  0.04997446     0.14800
H636        H  0.78436466  0.62080457  0.20160770     0.14700
H637        H  0.78194831  0.70346507  0.11451175     0.32800
H638        H  0.78587744  0.55548759  0.13676301     0.35600
C639        C  0.86381733  0.71139497  0.90108979     0.21200
C640        C  0.89375424  0.71202574  0.89596094    -0.38700
C641        C  0.90207820  0.71355941  0.86707975     0.20200
C642        C  0.88213816  0.71423640  0.84488848     0.22800
C643        C  0.85212900  0.71382782  0.85002977    -0.39200
C644        C  0.84377404  0.71251875  0.87898769     0.21600
N645        N  0.85054656  0.71304522  0.92668215    -0.32500
C646        C  0.82191442  0.71557350  0.92089954    -0.10000
C647        C  0.81677910  0.71535140  0.89141798    -0.28800
N648        N  0.89560608  0.71804454  0.81955192    -0.45400
C649        C  0.92426164  0.72021444  0.82576737    -0.04700
C650        C  0.92910936  0.71729540  0.85516364    -0.22100
H651        H  0.90940390  0.71260619  0.91326000     0.19700
H652        H  0.83646569  0.71574756  0.83284557     0.18500
H653        H  0.79636477  0.71900324  0.88057959     0.14800
H654        H  0.94952220  0.71921785  0.86645746     0.14700
H655        H  0.86049440  0.71473440  0.94675431     0.32800
H656        H  0.88579058  0.72061048  0.79951044     0.35600
C657        C  0.52823499  0.38143449  0.90371173     0.21200
C658        C  0.51460357  0.35713805  0.89255162    -0.38700
C659        C  0.52661206  0.34604410  0.86747789     0.20200
C660        C  0.55073433  0.35781071  0.85425386     0.22800
C661        C  0.56472728  0.38229297  0.86571786    -0.39200
C662        C  0.55242338  0.39372783  0.89105251     0.21600
N663        N  0.51836766  0.39768960  0.92522921    -0.32500
C664        C  0.53604557  0.42082615  0.92661799    -0.10000
C665        C  0.55802764  0.41902243  0.90595998    -0.28800
N666        N  0.55579947  0.34445675  0.82892685    -0.45400
C667        C  0.53426441  0.32463848  0.82632381    -0.04700
C668        C  0.51602046  0.32497333  0.85002376    -0.22100
H669        H  0.49494165  0.34845997  0.90184462     0.19700
H670        H  0.58280164  0.39251098  0.85497259     0.18500
H671        H  0.57423725  0.43509101  0.90097059     0.14800
H672        H  0.49650619  0.31242632  0.85328175     0.14700
H673        H  0.49958651  0.39404249  0.93726437     0.32800
H674        H  0.57157950  0.34967305  0.81370628     0.35600
C675        C  0.45686380  0.15439758  0.63441417     0.21200
C676        C  0.45680035  0.14769082  0.60507552    -0.38700
C677        C  0.45645101  0.11833178  0.59838010     0.20200
C678        C  0.45615291  0.09722943  0.61933311     0.22800
C679        C  0.45605096  0.10392506  0.64869770    -0.39200
C680        C  0.45645704  0.13331545  0.65538908     0.21600
N681        N  0.46024018  0.18052661  0.64620535    -0.32500
C682        C  0.46226244  0.17607489  0.67487115    -0.10000
C683        C  0.45965859  0.14691148  0.68146423    -0.28800
N684        N  0.45900633  0.07107197  0.60748690    -0.45400
C685        C  0.46140518  0.07559051  0.57883629    -0.04700
C686        C  0.45951504  0.10476727  0.57229451    -0.22100
H687        H  0.45835683  0.16410285  0.58868293     0.19700
H688        H  0.45703937  0.08747668  0.66509584     0.18500
H689        H  0.46187062  0.13685625  0.70229815     0.14800
H690        H  0.46215906  0.11482058  0.55150709     0.14700
H691        H  0.46277211  0.19996704  0.63529449     0.32800
H692        H  0.46093510  0.05154194  0.61835635     0.35600
C693        C  0.39974342  0.20681696  0.86063186     0.21200
C694        C  0.37558397  0.19259200  0.87277312    -0.38700
C695        C  0.36361374  0.20551634  0.89754282     0.20200
C696        C  0.37508013  0.23054505  0.90897431     0.22800
C697        C  0.39900032  0.24449396  0.89708211    -0.39200
C698        C  0.41069120  0.23179988  0.87261018     0.21600
N699        N  0.41358527  0.20088435  0.83572797    -0.32500
C700        C  0.43293555  0.22265450  0.83206914    -0.10000
C701        C  0.43177891  0.24203716  0.85473657    -0.28800
N702        N  0.35867447  0.24039384  0.93044491    -0.45400
C703        C  0.33626019  0.22184418  0.93309145    -0.04700
C704        C  0.33867727  0.19936696  0.91320402    -0.22100
H705        H  0.36609266  0.17368677  0.86300942     0.19700
H706        H  0.40707837  0.26465999  0.90551198     0.18500
H707        H  0.44374991  0.26194743  0.85700873     0.14800
H708        H  0.32330210  0.18221132  0.90935610     0.14700
H709        H  0.40894159  0.18425796  0.82134602     0.32800
H710        H  0.36184689  0.25948149  0.94181059     0.35600
C711        C  0.37587296  0.34550987  0.72878043     0.21200
C712        C  0.35227553  0.35688773  0.74346518    -0.38700
C713        C  0.33614733  0.37721643  0.72855030     0.20200
C714        C  0.34291710  0.38618806  0.70103635     0.22800
C715        C  0.36665595  0.37431485  0.68595658    -0.39200
C716        C  0.38286110  0.35337772  0.70096493     0.21600
N717        N  0.39528285  0.32721633  0.73949941    -0.32500
C718        C  0.41497408  0.32275525  0.71853709    -0.10000
C719        C  0.40797363  0.33848606  0.69385239    -0.28800
N720        N  0.32593083  0.40864307  0.69345415    -0.45400
C721        C  0.30872072  0.41367959  0.71664022    -0.04700
C722        C  0.31425889  0.39410518  0.73848436    -0.22100
H723        H  0.34749543  0.35114583  0.76548489     0.19700
H724        H  0.37266629  0.38153782  0.66469561     0.18500
H725        H  0.42012705  0.33974077  0.67402650     0.14800
H726        H  0.30522614  0.39391975  0.75994175     0.14700
H727        H  0.39530364  0.31852131  0.76016100     0.32800
H728        H  0.32750859  0.42102344  0.67484299     0.35600
C729        C  0.08853414  0.45359323  0.61823727     0.21200
C730        C  0.09387865  0.45666059  0.64777719    -0.38700
C731        C  0.12315999  0.45859251  0.65573853     0.20200
C732        C  0.14532610  0.45772767  0.63572837     0.22800
C733        C  0.14000207  0.45468196  0.60627514    -0.39200
C734        C  0.11080255  0.45251994  0.59834390     0.21600
N735        N  0.06273059  0.45482593  0.60490069    -0.32500
C736        C  0.06862439  0.45440880  0.57639537    -0.10000
C737        C  0.09835808  0.45292848  0.57149172    -0.28800
N738        N  0.17105712  0.46226537  0.64833049    -0.45400
C739        C  0.16536006  0.46610776  0.67659129    -0.04700
C740        C  0.13570275  0.46379727  0.68213238    -0.22100
H741        H  0.07650402  0.45861042  0.66326508     0.19700
H742        H  0.15728705  0.45518286  0.59056986     0.18500
H743        H  0.10944959  0.45503342  0.55112304     0.14800
H744        H  0.12472370  0.46686135  0.70243391     0.14700
H745        H  0.04258892  0.45831580  0.61448627     0.32800
H746        H  0.19118376  0.46370807  0.63812705     0.35600
C747        C  0.87590537  0.53978853  0.41064413     0.21200
C748        C  0.84658934  0.53551736  0.40383134    -0.38700
C749        C  0.83885491  0.54081272  0.37520182     0.20200
C750        C  0.85871035  0.55019218  0.35495326     0.22800
C751        C  0.88808521  0.55434327  0.36176259    -0.39200
C752        C  0.89592246  0.54856092  0.39030233     0.21600
N753        N  0.88915815  0.53305874  0.43542038    -0.32500
C754        C  0.91788246  0.53702951  0.43074816    -0.10000
C755        C  0.92294500  0.54690630  0.40288860    -0.28800
N756        N  0.84669543  0.55052275  0.32864128    -0.45400
C757        C  0.81923511  0.54077839  0.33209674    -0.04700
C758        C  0.81350082  0.53461542  0.36082243    -0.22100
H759        H  0.83128675  0.52702939  0.41927865     0.19700
H760        H  0.90397303  0.56001340  0.34562807     0.18500
H761        H  0.94369101  0.55060513  0.39267785     0.14800
H762        H  0.79419160  0.52472000  0.36959760     0.14700
H763        H  0.87943589  0.52439309  0.45374262     0.32800
H764        H  0.85723575  0.55465080  0.30923990     0.35600
C765        C  0.14118754  0.63979158  0.45960625     0.21200
C766        C  0.11782396  0.62733954  0.44446959    -0.38700
C767        C  0.10565035  0.60246226  0.45698357     0.20200
C768        C  0.11625536  0.59116911  0.48239740     0.22800
C769        C  0.13919600  0.60354314  0.49739637    -0.39200
C770        C  0.15101172  0.62817152  0.48515494     0.21600
N771        N  0.15603061  0.66405881  0.45335983    -0.32500
C772        C  0.17487258  0.66763711  0.47550824    -0.10000
C773        C  0.17226827  0.64568784  0.49554364    -0.28800
N774        N  0.10014158  0.56908714  0.49129800    -0.45400
C775        C  0.07865325  0.56608114  0.47182709    -0.04700
C776        C  0.08143616  0.58626250  0.44970677    -0.22100
H777        H  0.10928397  0.63671402  0.42497522     0.19700
H778        H  0.14671470  0.59508364  0.51771869     0.18500
H779        H  0.18418686  0.64310403  0.51539673     0.14800
H780        H  0.06669548  0.58989486  0.43201470     0.14700
H781        H  0.15299080  0.67766099  0.43578057     0.32800
H782        H  0.10276957  0.55768172  0.51041154     0.35600
C783        C  0.98797455  0.60740100  0.60750259     0.21200
C784        C  0.00561574  0.62645268  0.62258838    -0.38700
C785        C  0.99160424  0.64373729  0.64259572     0.20200
C786        C  0.96208477  0.64242644  0.64759616     0.22800
C787        C  0.94415825  0.62295355  0.63235322    -0.39200
C788        C  0.95837603  0.60541167  0.61189759     0.21600
N789        N  0.99681224  0.58882712  0.58756226    -0.32500
C790        C  0.97300047  0.57438738  0.57866237    -0.10000
C791        C  0.94828824  0.58412493  0.59329298    -0.28800
N792        N  0.95457494  0.66163857  0.66812983    -0.45400
C793        C  0.97974143  0.67488117  0.67588765    -0.04700
C794        C  0.00306334  0.66412626  0.66036386    -0.22100
H795        H  0.02876636  0.62770737  0.61897608     0.19700
H796        H  0.92105038  0.62157935  0.63609521     0.18500
H797        H  0.92625620  0.57647239  0.59098205     0.14800
H798        H  0.02562278  0.67037686  0.66194331     0.14700
H799        H  0.01813825  0.58605522  0.58054175     0.32800
H800        H  0.93388853  0.66530681  0.67645311     0.35600
C801        C  0.38126786  0.04135330  0.40583900     0.21200
C802        C  0.37066711  0.05614765  0.38159064    -0.38700
C803        C  0.34619038  0.04389684  0.36817308     0.20200
C804        C  0.33343516  0.01897946  0.37843858     0.22800
C805        C  0.34377446  0.00446305  0.40259724    -0.39200
C806        C  0.36815230  0.01645932  0.41568759     0.21600
N807        N  0.40595715  0.04646183  0.42053200    -0.32500
C808        C  0.40856111  0.02426800  0.43929149    -0.10000
C809        C  0.38522690  0.00542294  0.43705431    -0.28800
N810        N  0.31280633  0.00966695  0.36053879    -0.45400
C811        C  0.31217562  0.02849104  0.33841210    -0.04700
C812        C  0.33241719  0.05054437  0.34251359    -0.22100
H813        H  0.38153990  0.07486885  0.37295400     0.19700
H814        H  0.33449052  0.98430006  0.40970040     0.18500
H815        H  0.38207942  0.98535480  0.44840779     0.14800
H816        H  0.33788921  0.06765169  0.32773363     0.14700
H817        H  0.42097829  0.06285165  0.41677059     0.32800
H818        H  0.30092305  0.99070296  0.36250598     0.35600
C819        C  0.28154053  0.13396825  0.09944784     0.21200
C820        C  0.28065994  0.10432066  0.10505072    -0.38700
C821        C  0.28129113  0.09645143  0.13414232     0.20200
C822        C  0.28260750  0.11655772  0.15601192     0.22800
C823        C  0.28342039  0.14620760  0.15040786    -0.39200
C824        C  0.28288060  0.15406963  0.12131944     0.21600
N825        N  0.27961393  0.14700199  0.07373577    -0.32500
C826        C  0.27962826  0.17563231  0.07928791    -0.10000
C827        C  0.28176321  0.18083955  0.10872890    -0.28800
N828        N  0.28101164  0.10365372  0.18181543    -0.45400
C829        C  0.27847351  0.07510971  0.17635039    -0.04700
C830        C  0.27878312  0.06981133  0.14684315    -0.22100
H831        H  0.27884447  0.08856501  0.08804656     0.19700
H832        H  0.28368542  0.16201816  0.16745262     0.18500
H833        H  0.28131600  0.20143193  0.11954167     0.14800
H834        H  0.27600740  0.04935524  0.13610704     0.14700
H835        H  0.27734600  0.13704970  0.05379877     0.32800
H836        H  0.28033476  0.11373285  0.20179693     0.35600
C837        C  0.21264935  0.84133859  0.38203744     0.21200
C838        C  0.21577425  0.84704001  0.35262001    -0.38700
C839        C  0.21073457  0.87551602  0.34412840     0.20200
C840        C  0.20266256  0.89671185  0.36338806     0.22800
C841        C  0.19980769  0.89103947  0.39295335    -0.39200
C842        C  0.20535664  0.86256990  0.40154790     0.21600
N843        N  0.21860836  0.81656208  0.39558823    -0.32500
C844        C  0.21566549  0.82196443  0.42404231    -0.10000
C845        C  0.20732011  0.85048339  0.42864640    -0.28800
N846        N  0.20189993  0.92253642  0.35031105    -0.45400
C847        C  0.21008016  0.91778179  0.32273496    -0.04700
C848        C  0.21570988  0.88872328  0.31810037    -0.22100
H849        H  0.22299492  0.83076992  0.33763230     0.19700
H850        H  0.19498368  0.90784343  0.40829104     0.18500
H851        H  0.20423528  0.86119085  0.44904151     0.14800
H852        H  0.22445512  0.87895579  0.29887599     0.14700
H853        H  0.22576141  0.79748197  0.38609815     0.32800
H854        H  0.19852228  0.94246068  0.36008994     0.35600
C855        C  0.36383849  0.90369343  0.20601439     0.21200
C856        C  0.37684702  0.88111423  0.19044203    -0.38700
C857        C  0.39936029  0.86639620  0.20468493     0.20200
C858        C  0.40789566  0.87378718  0.23221703     0.22800
C859        C  0.39531392  0.89630886  0.24745747    -0.39200
C860        C  0.37312070  0.91082124  0.23336859     0.21600
N861        N  0.33982428  0.91880690  0.19918038    -0.32500
C862        C  0.33396237  0.93506286  0.22270962    -0.10000
C863        C  0.35454754  0.93092176  0.24407130    -0.28800
N864        N  0.42729656  0.85515948  0.24244263    -0.45400
C865        C  0.43152128  0.83554367  0.22145861    -0.04700
C866        C  0.41478177  0.84190713  0.19725850    -0.22100
H867        H  0.36911252  0.87460471  0.16949522     0.19700
H868        H  0.40132905  0.90118489  0.26938770     0.18500
H869        H  0.35459768  0.93981712  0.26555387     0.14800
H870        H  0.41276063  0.82936364  0.17779671     0.14700
H871        H  0.32710461  0.91660787  0.18074439     0.32800
H872        H  0.43629634  0.85518632  0.26294793     0.35600
C873        C  0.90139097  0.86433592  0.70817510     0.21200
C874        C  0.89407519  0.89335619  0.70370107    -0.38700
C875        C  0.86457388  0.90024888  0.70704721     0.20200
C876        C  0.84413242  0.87983491  0.71476142     0.22800
C877        C  0.85137248  0.85088631  0.71884636    -0.39200
C878        C  0.88065504  0.84394681  0.71505942     0.21600
N879        N  0.92810557  0.85266769  0.70889986    -0.32500
C880        C  0.92419578  0.82464806  0.71612828    -0.10000
C881        C  0.89486333  0.81843143  0.71982226    -0.28800
N882        N  0.81835258  0.89217875  0.71989840    -0.45400
C883        C  0.82215750  0.92060318  0.71502009    -0.04700
C884        C  0.85064152  0.92653771  0.70679377    -0.22100
H885        H  0.91028168  0.90954547  0.69907143     0.19700
H886        H  0.83553693  0.83509989  0.72562298     0.18500
H887        H  0.88537958  0.79840605  0.72704931     0.14800
H888        H  0.86035116  0.94745826  0.70342616     0.14700
H889        H  0.94781803  0.86338394  0.70596533     0.32800
H890        H  0.79969401  0.88213456  0.72764321     0.35600
C891        C  0.65293395  0.11787092  0.77761501     0.21200
C892        C  0.64838925  0.14769563  0.77718846    -0.38700
C893        C  0.61933728  0.15645756  0.77621846     0.20200
C894        C  0.59666103  0.13694052  0.77573194     0.22800
C895        C  0.60121007  0.10716878  0.77596977    -0.39200
C896        C  0.63020324  0.09842530  0.77695632     0.21600
N897        N  0.67845382  0.10407847  0.77694222    -0.32500
C898        C  0.67188822  0.07568882  0.77566825    -0.10000
C899        C  0.64200001  0.07129833  0.77575886    -0.28800
N900        N  0.57118230  0.15055808  0.77351297    -0.45400
C901        C  0.57758918  0.17896234  0.77235572    -0.04700
C902        C  0.60743572  0.18355733  0.77408195    -0.22100
H903        H  0.66615508  0.16290988  0.77696029     0.19700
H904        H  0.58349007  0.09194181  0.77481456     0.18500
H905        H  0.63048684  0.05110072  0.77384146     0.14800
H906        H  0.61888481  0.20384444  0.77291149     0.14700
H907        H  0.69900912  0.11344351  0.77615419     0.32800
H908        H  0.55074503  0.14102751  0.77184649     0.35600
C909        C  0.65108498  0.95329208  0.63628925     0.21200
C910        C  0.64514474  0.95518266  0.60682529    -0.38700
C911        C  0.61575546  0.95659592  0.59940077     0.20200
C912        C  0.59394386  0.95613491  0.61980578     0.22800
C913        C  0.59985580  0.95409447  0.64926271    -0.39200
C914        C  0.62926210  0.95272735  0.65669348     0.21600
N915        N  0.67714291  0.95559482  0.64888664    -0.32500
C916        C  0.67190788  0.95698645  0.67747784    -0.10000
C917        C  0.64230304  0.95470545  0.68321659    -0.28800
N918        N  0.56802532  0.96052692  0.60750833    -0.45400
C919        C  0.57337111  0.96393906  0.57910037    -0.04700
C920        C  0.60287596  0.96137034  0.57315540    -0.22100
H921        H  0.66219453  0.95696101  0.59096229     0.19700
H922        H  0.58288598  0.95506578  0.66527753     0.18500
H923        H  0.63159625  0.95713886  0.70374861     0.14800
H924        H  0.61359299  0.96426254  0.55268904     0.14700
H925        H  0.69698864  0.95857729  0.63854875     0.32800
H926        H  0.54811079  0.96237462  0.61796695     0.35600
C927        C  0.72731405  0.87817135  0.91269303     0.21200
C928        C  0.74112176  0.90235160  0.90137418    -0.38700
C929        C  0.72731019  0.91528070  0.87809709     0.20200
C930        C  0.70147264  0.90516425  0.86679778     0.22800
C931        C  0.68736021  0.88095634  0.87846713    -0.39200
C932        C  0.70133513  0.86782565  0.90192384     0.21600
N933        N  0.73818848  0.86028728  0.93239228    -0.32500
C934        C  0.71918065  0.83823247  0.93442549    -0.10000
C935        C  0.69556667  0.84226672  0.91609164    -0.28800
N936        N  0.69512616  0.91906626  0.84217192    -0.45400
C937        C  0.71750180  0.93754112  0.83779978    -0.04700
C938        C  0.73758208  0.93606557  0.85999769    -0.22100
H939        H  0.76211191  0.90947695  0.90897089     0.19700
H940        H  0.66792774  0.87203026  0.86896581     0.18500
H941        H  0.67791774  0.82747178  0.91203443     0.14800
H942        H  0.75828292  0.94697414  0.86136040     0.14700
H943        H  0.75813463  0.86224744  0.94279596     0.32800
H944        H  0.67814805  0.91449318  0.82802716     0.35600
C945        C  0.62720756  0.15060180  0.45965355     0.21200
C946        C  0.59739721  0.14433225  0.46042880    -0.38700
C947        C  0.59003577  0.11503198  0.46178583     0.20200
C948        C  0.61078426  0.09358219  0.46239007     0.22800
C949        C  0.64058977  0.09984712  0.46154907    -0.39200
C950        C  0.64794637  0.12913733  0.46012299     0.21600
N951        N  0.63977850  0.17671252  0.46100572    -0.32500
C952        C  0.66875361  0.17188720  0.46254884    -0.10000
C953        C  0.67464338  0.14244368  0.46173474    -0.28800
N954        N  0.59830631  0.06766865  0.46616173    -0.45400
C955        C  0.56937219  0.07259100  0.46813387    -0.04700
C956        C  0.56341276  0.10189945  0.46525661    -0.22100
H957        H  0.58114475  0.16108000  0.46106733     0.19700
H958        H  0.65688300  0.08319248  0.46303222     0.18500
H959        H  0.69552084  0.13211113  0.46405223     0.14800
H960        H  0.54256375  0.11237028  0.46717044     0.14700
H961        H  0.62920793  0.19649662  0.46249077     0.32800
H962        H  0.60894844  0.04802668  0.46869202     0.35600
C963        C  0.83775876  0.36655382  0.53851989     0.21200
C964        C  0.84431178  0.39581136  0.53526946    -0.38700
C965        C  0.87379798  0.40296032  0.53646973     0.20200
C966        C  0.89522670  0.38248075  0.54013670     0.22800
C967        C  0.88866639  0.35319228  0.54355211    -0.39200
C968        C  0.85908856  0.34607683  0.54280878     0.21600
N969        N  0.81175623  0.35400822  0.53510594    -0.32500
C970        C  0.81644640  0.32538863  0.53752534    -0.10000
C971        C  0.84566779  0.31956944  0.54243351    -0.28800
N972        N  0.92165243  0.39449843  0.53786554    -0.45400
C973        C  0.91694287  0.42283748  0.53290068    -0.04700
C974        C  0.88737391  0.42894734  0.53212383    -0.22100
H975        H  0.82774352  0.41170700  0.53102833     0.19700
H976        H  0.90539320  0.33701843  0.54553442     0.18500
H977        H  0.85604404  0.29871607  0.54282098     0.14800
H978        H  0.87720433  0.44934957  0.52734135     0.14700
H979        H  0.79240479  0.36408737  0.52939457     0.32800
H980        H  0.94160918  0.38392272  0.53863030     0.35600
C981        C  0.73190391  0.38329970  0.34274480     0.21200
C982        C  0.74758991  0.36163995  0.35628689    -0.38700
C983        C  0.73271965  0.34638012  0.37732519     0.20200
C984        C  0.70421503  0.35197782  0.38466695     0.22800
C985        C  0.68828549  0.37393055  0.37088306    -0.39200
C986        C  0.70333748  0.38943220  0.34946355     0.21600
N987        N  0.74230509  0.40180694  0.32346483    -0.32500
C988        C  0.72052566  0.42027221  0.31749245    -0.10000
C989        C  0.69552492  0.41316375  0.33302742    -0.28800
N990        N  0.69605069  0.33518613  0.40694763    -0.45400
C991        C  0.71985607  0.31929867  0.41357425    -0.04700
C992        C  0.74287092  0.32567569  0.39540564    -0.22100
H993        H  0.77015785  0.35756220  0.35139809     0.19700
H994        H  0.66623583  0.37906491  0.37690008     0.18500
H995        H  0.67512958  0.42461699  0.33342263     0.14800
H996        H  0.76467854  0.31711989  0.39614730     0.14700
H997        H  0.76342245  0.40235546  0.31549015     0.32800
H998        H  0.67619876  0.33548679  0.41774273     0.35600
C999        C  0.64430489  0.29838591  0.60675760     0.21200
C1000       C  0.63900609  0.30274814  0.63607776    -0.38700
C1001       C  0.60987910  0.30144838  0.64452526     0.20200
C1002       C  0.58766318  0.29643119  0.62516737     0.22800
C1003       C  0.59295016  0.29237222  0.59577263    -0.39200
C1004       C  0.62211581  0.29349494  0.58734751     0.21600
N1005       N  0.67022476  0.29490850  0.59413246    -0.32500
C1006       C  0.66456180  0.28762244  0.56652270    -0.10000
C1007       C  0.63477920  0.28688501  0.56136140    -0.28800
N1008       N  0.56250560  0.29209659  0.63902792    -0.45400
C1009       C  0.56884043  0.29378359  0.66739614    -0.04700
C1010       C  0.59807237  0.30017041  0.67164641    -0.22100
H1011       H  0.65643136  0.30508292  0.65146054     0.19700
H1012       H  0.57580041  0.28692493  0.58087394     0.18500
H1013       H  0.62389248  0.28021151  0.54188490     0.14800
H1014       H  0.60964958  0.30094831  0.69183955     0.14700
H1015       H  0.69045721  0.29581054  0.60409956     0.32800
H1016       H  0.54284307  0.28584179  0.62984062     0.35600
C1017       C  0.77903457  0.11505893  0.65060927     0.21200
C1018       C  0.77682808  0.14452140  0.64469488    -0.38700
C1019       C  0.77800077  0.15213255  0.61561740     0.20200
C1020       C  0.78120519  0.13198382  0.59397954     0.22800
C1021       C  0.78351213  0.10245286  0.59991480    -0.39200
C1022       C  0.78218533  0.09479914  0.62906413     0.21600
N1023       N  0.77609283  0.10227097  0.67628823    -0.32500
C1024       C  0.77706503  0.07360888  0.67113632    -0.10000
C1025       C  0.78104717  0.06809312  0.64192624    -0.28800
N1026       N  0.77913747  0.14455360  0.56803063    -0.45400
C1027       C  0.77433637  0.17284662  0.57329505    -0.04700
C1028       C  0.77381337  0.17838365  0.60271301    -0.22100
H1029       H  0.77327063  0.16026488  0.66143604     0.19700
H1030       H  0.78500477  0.08652927  0.58304269     0.18500
H1031       H  0.78153317  0.04736859  0.63137407     0.14800
H1032       H  0.76926432  0.19862651  0.61324789     0.14700
H1033       H  0.77215843  0.11239156  0.69588169     0.32800
H1034       H  0.77952796  0.13436567  0.54815225     0.35600
C1035       C  0.12978278  0.09514975  0.28693970     0.21200
C1036       C  0.09995094  0.10088936  0.28648402    -0.38700
C1037       C  0.09232829  0.13003301  0.28594132     0.20200
C1038       C  0.11287586  0.15175643  0.28587306     0.22800
C1039       C  0.14268074  0.14602119  0.28624553    -0.39200
C1040       C  0.15029677  0.11690395  0.28681042     0.21600
N1041       N  0.14259288  0.06933212  0.28507148    -0.32500
C1042       C  0.17142430  0.07472375  0.28349152    -0.10000
C1043       C  0.17709457  0.10413672  0.28479616    -0.28800
N1044       N  0.10019015  0.17753176  0.28316766    -0.45400
C1045       C  0.07138568  0.17220359  0.28124188    -0.04700
C1046       C  0.06558621  0.14282778  0.28309138    -0.22100
H1047       H  0.08390410  0.08392074  0.28556473     0.19700
H1048       H  0.15874915  0.16295927  0.28513767     0.18500
H1049       H  0.19785543  0.11479321  0.28268440     0.14800
H1050       H  0.04480452  0.13220111  0.28104137     0.14700
H1051       H  0.13226398  0.04938481  0.28337996     0.32800
H1052       H  0.11062030  0.19741541  0.28127407     0.35600
C1053       C  0.87810723  0.34333529  0.22628519     0.21200
C1054       C  0.85636579  0.35711228  0.24178277    -0.38700
C1055       C  0.84631635  0.38275239  0.23012077     0.20200
C1056       C  0.85641794  0.39390412  0.20445988     0.22800
C1057       C  0.87853056  0.37999749  0.18877205    -0.39200
C1058       C  0.88918824  0.35425711  0.20088911     0.21600
N1059       N  0.89344428  0.32077476  0.23527936    -0.32500
C1060       C  0.91508802  0.31724169  0.21607416    -0.10000
C1061       C  0.91295383  0.33736272  0.19381452    -0.28800
N1062       N  0.84366055  0.41948590  0.19900616    -0.45400
C1063       C  0.82605210  0.42441569  0.22187919    -0.04700
C1064       C  0.82721389  0.40197874  0.24149244    -0.22100
H1065       H  0.84883840  0.34914911  0.26231026     0.19700
H1066       H  0.88763227  0.38915726  0.16941411     0.18500
H1067       H  0.92823115  0.34092497  0.17654823     0.14800
H1068       H  0.81571412  0.40014023  0.26167661     0.14700
H1069       H  0.89067673  0.30985945  0.25466493     0.32800
H1070       H  0.84734946  0.43303440  0.18151554     0.35600
C1071       C  0.09754144  0.29081117  0.13467992     0.21200
C1072       C  0.10374274  0.29106077  0.10518574    -0.38700
C1073       C  0.13319380  0.29256457  0.09786200     0.20200
C1074       C  0.15485477  0.29389225  0.11837914     0.22800
C1075       C  0.14863562  0.29389367  0.14791243    -0.39200
C1076       C  0.11915480  0.29215237  0.15524495     0.21600
N1077       N  0.07158160  0.28639387  0.14699535    -0.32500
C1078       C  0.07661138  0.28457813  0.17560952    -0.10000
C1079       C  0.10604212  0.28835824  0.18162662    -0.28800
N1080       N  0.18110879  0.29184469  0.10600492    -0.45400
C1081       C  0.17614317  0.28892438  0.07744358    -0.04700
C1082       C  0.14650337  0.28966744  0.07152302    -0.22100
H1083       H  0.08694944  0.28870493  0.08913286     0.19700
H1084       H  0.16557311  0.29368440  0.16398325     0.18500
H1085       H  0.11662431  0.28678185  0.20229847     0.14800
H1086       H  0.13604562  0.28627332  0.05100184     0.14700
H1087       H  0.05188743  0.28319212  0.13643623     0.32800
H1088       H  0.20105558  0.29067513  0.11651736     0.35600
C1089       C  0.04032569  0.35385788  0.35649776     0.21200
C1090       C  0.04683012  0.36001870  0.38532125    -0.38700
C1091       C  0.03844365  0.38734034  0.39509258     0.20200
C1092       C  0.02502153  0.40712622  0.37733593     0.22800
C1093       C  0.01804187  0.40080144  0.34874085    -0.39200
C1094       C  0.02603668  0.37339772  0.33912567     0.21600
N1095       N  0.04351948  0.32854249  0.34288776    -0.32500
C1096       C  0.03056277  0.33186080  0.31700131    -0.10000
C1097       C  0.01947646  0.35953676  0.31386282    -0.28800
N1098       N  0.01789371  0.43092085  0.39200491    -0.45400
C1099       C  0.02621102  0.42611161  0.41947228    -0.04700
C1100       C  0.03921504  0.39916840  0.42227450    -0.22100
H1101       H  0.05664400  0.34429222  0.39939699     0.19700
H1102       H  0.00619460  0.41570382  0.33531620     0.18500
H1103       H  0.00656331  0.36772445  0.29627950     0.14800
H1104       H  0.04713812  0.38918876  0.44172838     0.14700
H1105       H  0.05171111  0.30950385  0.35156158     0.32800
H1106       H  0.00660576  0.44871025  0.38414596     0.35600
C1107       C  0.85934530  0.20337255  0.39836790     0.21200
C1108       C  0.87016898  0.19014143  0.37333770    -0.38700
C1109       C  0.89565214  0.20224760  0.36175440     0.20200
C1110       C  0.90911428  0.22574396  0.37424272     0.22800
C1111       C  0.89850950  0.23874721  0.39921658    -0.39200
C1112       C  0.87318430  0.22676608  0.41062634     0.21600
N1113       N  0.83394877  0.19812823  0.41184053    -0.32500
C1114       C  0.83164865  0.21869124  0.43241132    -0.10000
C1115       C  0.85582769  0.23666618  0.43237915    -0.28800
N1116       N  0.93068750  0.23549948  0.35757557    -0.45400
C1117       C  0.93118869  0.21828878  0.33412138    -0.04700
C1118       C  0.90994138  0.19691151  0.33610940    -0.22100
H1119       H  0.85881644  0.17268279  0.36285906     0.19700
H1120       H  0.90837084  0.25785707  0.40821532     0.18500
H1121       H  0.85933356  0.25564904  0.44538157     0.14800
H1122       H  0.90412215  0.18125864  0.31991287     0.14700
H1123       H  0.81831548  0.18291209  0.40612208     0.32800
H1124       H  0.94325745  0.25381681  0.36116867     0.35600
C1125       C  0.87622124  0.84299229  0.01513094     0.21200
C1126       C  0.89926861  0.85515061  0.99983579    -0.38700
C1127       C  0.91183668  0.87957008  0.01213712     0.20200
C1128       C  0.90245970  0.89108862  0.03790766     0.22800
C1129       C  0.87925427  0.87879242  0.05332273    -0.39200
C1130       C  0.86646373  0.85423413  0.04089030     0.21600
N1131       N  0.85900293  0.82158276  0.00624878    -0.32500
C1132       C  0.83782282  0.81901325  0.02623135    -0.10000
C1133       C  0.84190530  0.83876543  0.04850006    -0.28800
N1134       N  0.91684123  0.91570065  0.04374838    -0.45400
C1135       C  0.93503483  0.91987216  0.02121516    -0.04700
C1136       C  0.93260917  0.89765282  0.00128886    -0.22100
H1137       H  0.90608128  0.84692854  0.97917210     0.19700
H1138       H  0.87102854  0.88829370  0.07289530     0.18500
H1139       H  0.82763399  0.84279904  0.06648597     0.14800
H1140       H  0.94372158  0.89566198  0.98091543     0.14700
H1141       H  0.86064886  0.81046815  0.98689273     0.32800
H1142       H  0.91344385  0.92949308  0.06111252     0.35600
C1143       C  0.13477480  0.16363953  0.96018279     0.21200
C1144       C  0.10495901  0.15778502  0.96246394    -0.38700
C1145       C  0.09708985  0.12862234  0.96119207     0.20200
C1146       C  0.11740951  0.10698937  0.95795464     0.22800
C1147       C  0.14713776  0.11284932  0.95549757    -0.39200
C1148       C  0.15499327  0.14194208  0.95676833     0.21600
N1149       N  0.14806433  0.18909913  0.96411885    -0.32500
C1150       C  0.17692577  0.18348389  0.96360443    -0.10000
C1151       C  0.18203846  0.15436013  0.95861828    -0.28800
N1152       N  0.10486786  0.08100650  0.96021749    -0.45400
C1153       C  0.07633105  0.08601033  0.96501111    -0.04700
C1154       C  0.07058219  0.11548840  0.96545667    -0.22100
H1155       H  0.08920684  0.17457117  0.96632882     0.19700
H1156       H  0.16312487  0.09589204  0.95414600     0.18500
H1157       H  0.20270792  0.14337495  0.95876323     0.14800
H1158       H  0.05013671  0.12588171  0.97011245     0.14700
H1159       H  0.13812118  0.20866565  0.96901978     0.32800
H1160       H  0.11532321  0.06111141  0.95986493     0.35600
C1161       C  0.04582578  0.91293248  0.87993700     0.21200
C1162       C  0.03979924  0.90613432  0.85123320    -0.38700
C1163       C  0.04143557  0.87695304  0.84401101     0.20200
C1164       C  0.04815343  0.85594856  0.86394712     0.22800
C1165       C  0.05437106  0.86277679  0.89274636    -0.39200
C1166       C  0.05309799  0.89214268  0.89992538     0.21600
N1167       N  0.04222282  0.93855803  0.89266690    -0.32500
C1168       C  0.04739280  0.93436199  0.92095658    -0.10000
C1169       C  0.05441210  0.90566392  0.92635992    -0.28800
N1170       N  0.04540903  0.82960279  0.85221665    -0.45400
C1171       C  0.03695827  0.83397795  0.82462768    -0.04700
C1172       C  0.03457725  0.86325639  0.81870625    -0.22100
H1173       H  0.03306139  0.92228283  0.83590749     0.19700
H1174       H  0.05860962  0.84635459  0.90864666     0.18500
H1175       H  0.05690012  0.89549453  0.94710423     0.14800
H1176       H  0.02712127  0.87313589  0.79901741     0.14700
H1177       H  0.03428051  0.95727027  0.88309388     0.32800
H1178       H  0.04804044  0.80990403  0.86260778     0.35600
C1179       C  0.15122891  0.95922749  0.13503047     0.21200
C1180       C  0.14592342  0.95987126  0.10537843    -0.38700
C1181       C  0.11688100  0.96357411  0.09725773     0.20200
C1182       C  0.09471682  0.96621661  0.11711658     0.22800
C1183       C  0.09998707  0.96535312  0.14676640    -0.39200
C1184       C  0.12905663  0.96180572  0.15489814     0.21600
N1185       N  0.17720793  0.95976839  0.14812814    -0.32500
C1186       C  0.17154613  0.96306476  0.17650533    -0.10000
C1187       C  0.14173690  0.96391544  0.18156052    -0.28800
N1188       N  0.06943655  0.97205457  0.10396432    -0.45400
C1189       C  0.07563559  0.97339864  0.07554411    -0.04700
C1190       C  0.10495586  0.96800148  0.07054421    -0.22100
H1191       H  0.16330180  0.95908825  0.08979038     0.19700
H1192       H  0.08292373  0.96869761  0.16235526     0.18500
H1193       H  0.13089143  0.96820886  0.20171261     0.14800
H1194       H  0.11627229  0.96857514  0.05019882     0.14700
H1195       H  0.19746370  0.96012997  0.13818412     0.32800
H1196       H  0.04954490  0.97617302  0.11378551     0.35600
C1197       C  0.89685002  0.04801366  0.88609788     0.21200
C1198       C  0.87165694  0.06123555  0.87511159    -0.38700
C1199       C  0.85979476  0.04855280  0.85019880     0.20200
C1200       C  0.87226539  0.02465017  0.83750140     0.22800
C1201       C  0.89723137  0.01166876  0.84828212    -0.39200
C1202       C  0.90883566  0.02413039  0.87295507     0.21600
N1203       N  0.91105697  0.05398331  0.91077859    -0.32500
C1204       C  0.93171795  0.03331313  0.91316815    -0.10000
C1205       C  0.93099438  0.01460289  0.88990709    -0.28800
N1206       N  0.85571736  0.01461633  0.81617283    -0.45400
C1207       C  0.83228779  0.03199203  0.81497739    -0.04700
C1208       C  0.83410458  0.05379884  0.83560706    -0.22100
H1209       H  0.86138690  0.07918940  0.88580884     0.19700
H1210       H  0.90618785  0.99232334  0.83890711     0.18500
H1211       H  0.94413998  0.99562735  0.88655356     0.14800
H1212       H  0.81785385  0.06975884  0.84071313     0.14700
H1213       H  0.90600059  0.06993082  0.92574054     0.32800
H1214       H  0.85940458  0.99609613  0.80413003     0.35600
C1215       C  0.95654059  0.09956512  0.11178484     0.21200
C1216       C  0.95696648  0.10472680  0.14146999    -0.38700
C1217       C  0.95716768  0.13370669  0.14980022     0.20200
C1218       C  0.95702252  0.15593024  0.13005862     0.22800
C1219       C  0.95646173  0.15078237  0.10032450    -0.39200
C1220       C  0.95625424  0.12174247  0.09198317     0.21600
N1221       N  0.95950050  0.07404523  0.09856228    -0.32500
C1222       C  0.96147516  0.07989821  0.07011728    -0.10000
C1223       C  0.95912481  0.10944482  0.06515247    -0.28800
N1224       N  0.96020681  0.18141321  0.14337589    -0.45400
C1225       C  0.96251325  0.17536195  0.17178655    -0.04700
C1226       C  0.96041490  0.14582882  0.17661433    -0.22100
H1227       H  0.95841569  0.08743110  0.15693553     0.19700
H1228       H  0.95752145  0.16808167  0.08482791     0.18500
H1229       H  0.96154504  0.12058511  0.04489833     0.14800
H1230       H  0.96291402  0.13460571  0.19680946     0.14700
H1231       H  0.96208065  0.05408154  0.10845240     0.32800
H1232       H  0.96220397  0.20151690  0.13361154     0.35600
loop_ 
_geom_bond_atom_site_label_1 
_geom_bond_atom_site_label_2 
_geom_bond_distance 
_geom_bond_site_symmetry_2 
_ccdc_geom_bond_type 
O1           C17   1.270       .  A
O1           Zn7   1.983   1_545  S
C2           O18   1.267       .  A
C2           O15   1.274       .  A
C2         C1168   1.467       .  S
O3           C16   1.278       .  A
O3          Cd10   2.109       .  S
O4           C22   1.275       .  A
O4          Cd13   2.066   1_554  S
O5           C19   1.277       .  A
O5           Cd9   2.085   1_455  S
O6           C17   1.276       .  A
O6           Cd9   2.107       .  S
Zn7          O18   1.988   1_655  S
Zn7          O20   1.988       .  S
Zn7          O12   1.917   1_665  S
O8           C19   1.277       .  A
O8          Cd13   2.079   1_545  S
Cd9          O11   2.078   1_556  S
Cd9          O12   2.020   1_655  S
Cd10         O14   2.089   1_565  S
Cd10         O23   2.090   1_655  S
Cd10         O12   2.019   1_664  S
O11          C21   1.276       .  A
O12         Cd13   2.012   1_545  S
Cd13         O15   2.096       .  S
O14          C21   1.278       .  A
C16          O20   1.271   1_554  A
C16        C1135   1.475       .  S
C17        C1204   1.472       .  S
C19        C1153   1.476       .  S
C21        C1222   1.478       .  S
C22          O23   1.277       .  A
C22        C1189   1.474       .  S
O24          C40   1.270   1_655  A
O24         Zn30   1.996       .  S
C25          O41   1.271       .  A
C25          O38   1.276       .  A
C25        C1060   1.469       .  S
O26          C39   1.277       .  A
O26         Cd33   2.104       .  S
O27          C45   1.276       .  A
O27         Cd36   2.080       .  S
O28          C42   1.277       .  A
O28         Cd32   2.082       .  S
O29          C40   1.275       .  A
O29         Cd32   2.091       .  S
Zn30         O41   1.981       .  S
Zn30         O43   2.007       .  S
Zn30         O35   1.904       .  S
O31          C42   1.277       .  A
O31         Cd36   2.079   1_455  S
Cd32         O34   2.063       .  S
Cd32         O35   2.002   1_455  S
Cd33         O37   2.070   1_655  S
Cd33         O46   2.082       .  S
Cd33         O35   2.006       .  S
O34          C44   1.275       .  A
O35         Cd36   2.008       .  S
Cd36         O38   2.096       .  S
O37          C44   1.276       .  A
C39          O43   1.272       .  A
C39        C1117   1.476       .  S
C40        C1096   1.466       .  S
C42        C1078   1.476       .  S
C44        C1045   1.467       .  S
C45          O46   1.278       .  A
C45        C1225   1.477       .  S
O47          C63   1.270       .  A
O47         Zn53   1.971       .  S
C48          O64   1.269       .  A
C48          O61   1.273       .  A
C48         C970   1.463       .  S
O49          C62   1.277       .  A
O49         Cd56   2.110       .  S
O50          C68   1.275       .  A
O50         Cd59   2.063       .  S
O51          C65   1.277       .  A
O51         Cd55   2.081       .  S
O52          C63   1.277       .  A
O52         Cd55   2.109       .  S
Zn53         O64   1.997       .  S
Zn53         O66   1.988       .  S
Zn53         O58   1.911       .  S
O54          C65   1.275       .  A
O54         Cd59   2.069       .  S
Cd55         O57   2.090       .  S
Cd55         O58   2.022       .  S
Cd56         O60   2.083       .  S
Cd56         O69   2.089       .  S
Cd56         O58   2.016       .  S
O57          C67   1.278       .  A
O58         Cd59   2.001       .  S
Cd59         O61   2.085       .  S
O60          C67   1.278       .  A
C62          O66   1.270       .  A
C62        C1114   1.475       .  S
C63         C991   1.472       .  S
C65        C1006   1.472       .  S
C67         C952   1.480       .  S
C68          O69   1.277       .  A
C68        C1027   1.474       .  S
O70          C86   1.271   1_565  A
O70         Zn76   1.994       .  S
C71          O87   1.272       .  A
C71          O84   1.275       .  A
C71         C937   1.469       .  S
O72          C85   1.275       .  A
O72         Cd79   2.086       .  S
O73          C91   1.276       .  A
O73         Cd82   2.068       .  S
O74          C88   1.274       .  A
O74         Cd78   2.059       .  S
O75          C86   1.275       .  A
O75         Cd78   2.092       .  S
Zn76         O87   1.992       .  S
Zn76         O89   2.013       .  S
Zn76         O81   1.909       .  S
O77          C88   1.276       .  A
O77         Cd82   2.071   1_545  S
Cd78         O80   2.075       .  S
Cd78         O81   2.006   1_545  S
Cd79         O83   2.076   1_565  S
Cd79         O92   2.074       .  S
Cd79         O81   1.997       .  S
O80          C90   1.275       .  A
O81         Cd82   2.011       .  S
Cd82         O84   2.093       .  S
O83          C90   1.275       .  A
C85          O89   1.273       .  A
C85         C883   1.467       .  S
C86        C1207   1.470       .  S
C88         C898   1.467       .  S
C90        C1024   1.474       .  S
C91          O92   1.276       .  A
C91         C916   1.470       .  S
O93         C109   1.271       .  A
O93         Zn99   1.978       .  S
C94         O110   1.271   1_545  A
C94         O107   1.277       .  A
C94         C811   1.473       .  S
O95         C108   1.275       .  A
O95        Cd102   2.096       .  S
O96         C114   1.275       .  A
O96        Cd105   2.069       .  S
O97         C111   1.276       .  A
O97        Cd101   2.076   1_545  S
O98         C109   1.276       .  A
O98        Cd101   2.099       .  S
Zn99        O110   1.991       .  S
Zn99        O112   2.016       .  S
Zn99        O104   1.906       .  S
O100        C111   1.277       .  A
O100       Cd105   2.086       .  S
Cd101       O103   2.083       .  S
Cd101       O104   2.015       .  S
Cd102       O106   2.071       .  S
Cd102       O115   2.063   1_565  S
Cd102       O104   2.000       .  S
O103        C113   1.277       .  A
O104       Cd105   2.016   1_565  S
Cd105       O107   2.104       .  S
O106        C113   1.276       .  A
C108        O112   1.272       .  A
C108        C847   1.472       .  S
C109        C862   1.469       .  S
C111        C829   1.477       .  S
C113       C1186   1.474       .  S
C114        O115   1.274       .  A
C114       C1042   1.467       .  S
O116        C132   1.269       .  A
O116       Zn122   1.973       .  S
C117        O133   1.268   1_655  A
C117        O130   1.277       .  A
C117        C790   1.477       .  S
O118        C131   1.274       .  A
O118       Cd125   2.092       .  S
O119        C137   1.277       .  A
O119       Cd128   2.072       .  S
O120        C134   1.275       .  A
O120       Cd124   2.072   1_655  S
O121        C132   1.274       .  A
O121       Cd124   2.095       .  S
Zn122       O133   1.967       .  S
Zn122       O135   1.989       .  S
Zn122       O127   1.904   1_455  S
O123        C134   1.276       .  A
O123       Cd128   2.081       .  S
Cd124       O126   2.072       .  S
Cd124       O127   2.014   1_455  S
Cd125       O129   2.084       .  S
Cd125       O138   2.078   1_455  S
Cd125       O127   2.012   1_455  S
O126        C136   1.276       .  A
O127       Cd128   2.016       .  S
Cd128       O130   2.119       .  S
O129        C136   1.277       .  A
C131        O135   1.268       .  A
C131        C736   1.463       .  S
C132        C775   1.467       .  S
C134        C754   1.474       .  S
C136       C1099   1.472       .  S
C137        O138   1.277       .  A
C137        C973   1.471       .  S
O139        C155   1.271       .  A
O139       Zn145   1.981       .  S
C140        O156   1.269       .  A
C140        O153   1.274       .  A
C140        C700   1.472       .  S
O141        C154   1.275       .  A
O141       Cd148   2.104       .  S
O142        C160   1.275       .  A
O142       Cd151   2.061       .  S
O143        C157   1.276       .  A
O143       Cd147   2.080       .  S
O144        C155   1.275       .  A
O144       Cd147   2.094       .  S
Zn145       O156   1.981       .  S
Zn145       O158   1.977       .  S
Zn145       O150   1.898       .  S
O146        C157   1.274       .  A
O146       Cd151   2.063       .  S
Cd147       O149   2.071       .  S
Cd147       O150   2.012       .  S
Cd148       O152   2.074       .  S
Cd148       O161   2.080       .  S
Cd148       O150   2.019       .  S
O149        C159   1.275       .  A
O150       Cd151   2.014       .  S
Cd151       O153   2.102       .  S
O152        C159   1.276       .  A
C154        O158   1.270       .  A
C154        C667   1.471       .  S
C155        C718   1.468       .  S
C157        C682   1.471       .  S
C159       C1009   1.471       .  S
C160        O161   1.277       .  A
C160        C901   1.469       .  S
O162        C178   1.271       .  A
O162       Zn168   2.005       .  S
C163        O179   1.271       .  A
C163        O176   1.275       .  A
C163        C934   1.467       .  S
O164        C177   1.278       .  A
O164       Cd171   2.109       .  S
O165        C183   1.276       .  A
O165       Cd174   2.071   1_554  S
O166        C180   1.275       .  A
O166       Cd170   2.071       .  S
O167        C178   1.273       .  A
O167       Cd170   2.079       .  S
Zn168       O179   1.987       .  S
Zn168       O181   1.984       .  S
Zn168       O173   1.913       .  S
O169        C180   1.277       .  A
O169       Cd174   2.083       .  S
Cd170       O172   2.062   1_556  S
Cd170       O173   1.995       .  S
Cd171       O175   2.085       .  S
Cd171       O184   2.092       .  S
Cd171       O173   2.017   1_554  S
O172        C182   1.275       .  A
O173       Cd174   2.006       .  S
Cd174       O176   2.091       .  S
O175        C182   1.277       .  A
C177        O181   1.270   1_554  A
C177       C1132   1.474       .  S
C178        C646   1.463       .  S
C180        C592   1.474       .  S
C182        C628   1.472       .  S
C183        O184   1.278       .  A
C183        C610   1.477       .  S
O185        C201   1.271       .  A
O185       Zn191   1.989       .  S
C186        O202   1.274       .  A
C186        O199   1.275       .  A
C186        C556   1.472       .  S
O187        C200   1.275       .  A
O187       Cd194   2.100       .  S
O188        C206   1.277       .  A
O188       Cd197   2.081   1_554  S
O189        C203   1.276       .  A
O189       Cd193   2.077       .  S
O190        C201   1.276       .  A
O190       Cd193   2.107       .  S
Zn191       O202   2.005       .  S
Zn191       O204   1.991   1_556  S
Zn191       O196   1.917   1_556  S
O192        C203   1.275       .  A
O192       Cd197   2.077       .  S
Cd193       O195   2.087   1_556  S
Cd193       O196   2.020   1_556  S
Cd194       O198   2.072       .  S
Cd194       O207   2.073       .  S
Cd194       O196   2.016       .  S
O195        C205   1.278       .  A
O196       Cd197   2.013   1_554  S
Cd197       O199   2.090       .  S
O198        C205   1.276       .  A
C200        O204   1.269       .  A
C200        C574   1.469       .  S
C201        C703   1.473       .  S
C203       C1150   1.475       .  S
C205        C826   1.476       .  S
C206        O207   1.275       .  A
C206       C1081   1.475       .  S
O208        C224   1.268       .  A
O208       Zn214   1.968       .  S
C209        O225   1.271       .  A
C209        O222   1.276       .  A
C209       C1063   1.469       .  S
O210        C223   1.274       .  A
O210       Cd217   2.088       .  S
O211        C229   1.276       .  A
O211       Cd220   2.076       .  S
O212        C226   1.277       .  A
O212       Cd216   2.081       .  S
O213        C224   1.275       .  A
O213       Cd216   2.107       .  S
Zn214       O225   1.982       .  S
Zn214       O227   2.014       .  S
Zn214       O219   1.912       .  S
O215        C226   1.277       .  A
O215       Cd220   2.087       .  S
Cd216       O218   2.076       .  S
Cd216       O219   2.022       .  S
Cd217       O221   2.063       .  S
Cd217       O230   2.069       .  S
Cd217       O219   2.002       .  S
O218        C228   1.276       .  A
O219       Cd220   2.019       .  S
Cd220       O222   2.100       .  S
O221        C228   1.274       .  A
C223        O227   1.272       .  A
C223        C757   1.468       .  S
C224        C988   1.471       .  S
C226        C520   1.478       .  S
C228        C541   1.470       .  S
C229        O230   1.275       .  A
C229        C631   1.472       .  S
O231        C247   1.268       .  A
O231       Zn237   1.992       .  S
C232        O248   1.273   1_545  A
C232        O245   1.276       .  A
C232        C808   1.472       .  S
O233        C246   1.277       .  A
O233       Cd240   2.104       .  S
O234        C252   1.277       .  A
O234       Cd243   2.086       .  S
O235        C249   1.274       .  A
O235       Cd239   2.061   1_545  S
O236        C247   1.272       .  A
O236       Cd239   2.088       .  S
Zn237       O248   1.997       .  S
Zn237       O250   1.985       .  S
Zn237       O242   1.916       .  S
O238        C249   1.276       .  A
O238       Cd243   2.076       .  S
Cd239       O241   2.061       .  S
Cd239       O242   2.011       .  S
Cd240       O244   2.079       .  S
Cd240       O253   2.091   1_565  S
Cd240       O242   2.018       .  S
O241        C251   1.274       .  A
O242       Cd243   2.010   1_565  S
Cd243       O245   2.096       .  S
O244        C251   1.277       .  A
C246        O250   1.271       .  A
C246        C484   1.472       .  S
C247        C505   1.464       .  S
C249        C685   1.469       .  S
C251        C919   1.469       .  S
C252        O253   1.277       .  A
C252        C955   1.482       .  S
O254        C270   1.273   1_455  A
O254       Zn260   1.994       .  S
C255        O271   1.271       .  A
C255        O268   1.277       .  A
C255        C448   1.474       .  S
O256        C269   1.274       .  A
O256       Cd263   2.085       .  S
O257        C275   1.278       .  A
O257       Cd266   2.085       .  S
O258        C272   1.277       .  A
O258       Cd262   2.075       .  S
O259        C270   1.277       .  A
O259       Cd262   2.111       .  S
Zn260       O271   1.998       .  S
Zn260       O273   1.995       .  S
Zn260       O265   1.919       .  S
O261        C272   1.277       .  A
O261       Cd266   2.087   1_655  S
Cd262       O264   2.081       .  S
Cd262       O265   2.020   1_655  S
Cd263       O267   2.074   1_455  S
Cd263       O276   2.085       .  S
Cd263       O265   2.012       .  S
O264        C274   1.276       .  A
O265       Cd266   2.018       .  S
Cd266       O268   2.106       .  S
O267        C274   1.276       .  A
C269        O273   1.269       .  A
C269        C466   1.462       .  S
C270        C793   1.479       .  S
C272        C880   1.476       .  S
C274        C649   1.474       .  S
C275        O276   1.276       .  A
C275       C1171   1.478       .  S
O277        C293   1.270       .  A
O277       Zn283   1.977       .  S
C278        O294   1.272       .  A
C278        O291   1.274       .  A
C278        C433   1.471       .  S
O279        C292   1.278       .  A
O279       Cd286   2.110       .  S
O280        C298   1.274       .  A
O280       Cd289   2.061       .  S
O281        C295   1.275       .  A
O281       Cd285   2.077       .  S
O282        C293   1.276       .  A
O282       Cd285   2.094       .  S
Zn283       O294   2.013       .  S
Zn283       O296   1.989       .  S
Zn283       O288   1.912       .  S
O284        C295   1.276       .  A
O284       Cd289   2.069       .  S
Cd285       O287   2.074       .  S
Cd285       O288   2.015       .  S
Cd286       O290   2.091       .  S
Cd286       O299   2.082       .  S
Cd286       O288   2.018       .  S
O287        C297   1.275       .  A
O288       Cd289   2.001       .  S
Cd289       O291   2.093       .  S
O290        C297   1.278       .  A
C292        O296   1.271       .  A
C292        C487   1.474       .  S
C293        C865   1.466       .  S
C295        C412   1.473       .  S
C297        C613   1.478       .  S
C298        O299   1.278       .  A
C298        C538   1.470       .  S
O300        C316   1.271       .  A
O300       Zn306   1.995       .  S
C301        O317   1.271       .  A
C301        O314   1.277       .  A
C301        C772   1.469       .  S
O302        C315   1.273       .  A
O302       Cd309   2.088       .  S
O303        C321   1.276       .  A
O303       Cd312   2.084       .  S
O304        C318   1.279       .  A
O304       Cd308   2.099       .  S
O305        C316   1.276       .  A
O305       Cd308   2.104       .  S
Zn306       O317   1.980       .  S
Zn306       O319   1.995       .  S
Zn306       O311   1.919       .  S
O307        C318   1.276       .  A
O307       Cd312   2.073       .  S
Cd308       O310   2.086       .  S
Cd308       O311   2.019       .  S
Cd309       O313   2.067       .  S
Cd309       O322   2.075       .  S
Cd309       O311   2.011       .  S
O310        C320   1.278       .  A
O311       Cd312   2.014       .  S
Cd312       O314   2.101       .  S
O313        C320   1.276       .  A
C315        O319   1.268       .  A
C315        C397   1.464       .  S
C316        C451   1.473       .  S
C318        C844   1.479       .  S
C320        C502   1.472       .  S
C321        O322   1.275       .  A
C321        C430   1.475       .  S
O323        C339   1.268       .  A
O323       Zn329   1.963       .  S
C324        O340   1.268       .  A
C324        O337   1.275       .  A
C324        C379   1.468       .  S
O325        C338   1.276       .  A
O325       Cd332   2.113       .  S
O326        C344   1.276       .  A
O326       Cd335   2.073       .  S
O327        C341   1.277       .  A
O327       Cd331   2.085       .  S
O328        C339   1.275       .  A
O328       Cd331   2.113       .  S
Zn329       O340   1.963       .  S
Zn329       O342   1.969       .  S
Zn329       O334   1.885       .  S
O330        C341   1.277       .  A
O330       Cd335   2.074       .  S
Cd331       O333   2.070       .  S
Cd331       O334   2.016       .  S
Cd332       O336   2.077       .  S
Cd332       O345   2.076       .  S
Cd332       O334   2.015       .  S
O333        C343   1.277       .  A
O334       Cd335   2.007       .  S
Cd335       O337   2.098       .  S
O336        C343   1.278       .  A
C338        O342   1.267       .  A
C338        C559   1.473       .  S
C339        C721   1.473       .  S
C341        C394   1.474       .  S
C343        C739   1.470       .  S
C344        O345   1.276       .  A
C344        C469   1.472       .  S
O346        C362   1.270       .  A
O346       Zn352   1.990       .  S
C347        O363   1.271   1_554  A
C347        O360   1.274       .  A
C347        C577   1.466       .  S
O348        C361   1.276       .  A
O348       Cd355   2.097       .  S
O349        C367   1.275       .  A
O349       Cd358   2.074       .  S
O350        C364   1.276       .  A
O350       Cd354   2.082   1_554  S
O351        C362   1.274       .  A
O351       Cd354   2.099       .  S
Zn352       O363   1.993       .  S
Zn352       O365   2.000       .  S
Zn352       O357   1.914       .  S
O353        C364   1.277       .  A
O353       Cd358   2.078       .  S
Cd354       O356   2.068       .  S
Cd354       O357   2.021       .  S
Cd355       O359   2.069       .  S
Cd355       O368   2.078   1_556  S
Cd355       O357   2.015       .  S
O356        C366   1.275       .  A
O357       Cd358   2.007   1_556  S
Cd358       O360   2.090       .  S
O359        C366   1.276       .  A
C361        O365   1.273       .  A
C361        C376   1.471       .  S
C362        C664   1.472       .  S
C364        C523   1.476       .  S
C366        C595   1.470       .  S
C367        O368   1.275       .  A
C367        C415   1.474       .  S
C369        C374   1.385       .  A
C369        C370   1.394       .  A
C369        N375   1.336       .  A
C370        C371   1.392       .  A
C370        H381   1.083       .  S
C371        C380   1.365       .  A
C371        C372   1.384       .  A
C372        C373   1.411       .  A
C372        N378   1.351       .  A
C373        C374   1.412       .  A
C373        H382   1.082       .  S
C374        C377   1.389       .  A
N375        C376   1.351       .  A
N375        H385   1.041       .  S
C376        C377   1.401       .  A
C377        H383   1.082       .  S
N378        C379   1.359       .  A
N378        H386   1.045       .  S
C379        C380   1.390       .  A
C380        H384   1.083       .  S
C387        C392   1.384       .  A
C387        C388   1.406       .  A
C387        N393   1.346       .  A
C388        C389   1.406       .  A
C388        H399   1.082       .  S
C389        C398   1.382       .  A
C389        C390   1.385       .  A
C390        C391   1.402       .  A
C390        N396   1.342       .  A
C391        C392   1.400       .  A
C391        H400   1.082       .  S
C392        C395   1.376       .  A
N393        C394   1.357       .  A
N393        H403   1.044       .  S
C394        C395   1.395       .  A
C395        H401   1.083       .  S
N396        C397   1.354       .  A
N396        H404   1.044       .  S
C397        C398   1.395       .  A
C398        H402   1.082       .  S
C405        C410   1.384       .  A
C405        C406   1.407       .  A
C405        N411   1.346       .  A
C406        C407   1.406       .  A
C406        H417   1.082       .  S
C407        C416   1.382       .  A
C407        C408   1.385       .  A
C408        C409   1.401       .  A
C408        N414   1.342       .  A
C409        C410   1.400       .  A
C409        H418   1.083       .  S
C410        C413   1.374       .  A
N411        C412   1.358       .  A
N411        H421   1.044       .  S
C412        C413   1.394       .  A
C413        H419   1.083       .  S
N414        C415   1.354       .  A
N414        H422   1.046       .  S
C415        C416   1.398       .  A
C416        H420   1.082       .  S
C423        C428   1.384       .  A
C423        C424   1.403       .  A
C423        N429   1.344       .  A
C424        C425   1.403       .  A
C424        H435   1.082       .  S
C425        C434   1.378       .  A
C425        C426   1.385       .  A
C426        C427   1.406       .  A
C426        N432   1.347       .  A
C427        C428   1.406       .  A
C427        H436   1.082       .  S
C428        C431   1.381       .  A
N429        C430   1.355       .  A
N429        H439   1.045       .  S
C430        C431   1.397       .  A
C431        H437   1.082       .  S
N432        C433   1.356       .  A
N432        H440   1.044       .  S
C433        C434   1.394       .  A
C434        H438   1.082       .  S
C441        C446   1.385       .  A
C441        C442   1.399       .  A
C441        N447   1.339       .  A
C442        C443   1.397       .  A
C442        H453   1.083       .  S
C443        C452   1.371       .  A
C443        C444   1.384       .  A
C444        C445   1.411       .  A
C444        N450   1.351       .  A
C445        C446   1.411       .  A
C445        H454   1.082       .  S
C446        C449   1.389       .  A
N447        C448   1.354       .  A
N447        H457   1.044       .  S
C448        C449   1.399       .  A
C449        H455   1.082       .  S
N450        C451   1.358       .  A
N450        H458   1.045       .  S
C451        C452   1.392       .  A
C452        H456   1.083       .  S
C459        C464   1.385       .  A
C459        C460   1.403       .  A
C459        N465   1.344       .  A
C460        C461   1.403       .  A
C460        H471   1.082       .  S
C461        C470   1.377       .  A
C461        C462   1.384       .  A
C462        C463   1.403       .  A
C462        N468   1.344       .  A
C463        C464   1.403       .  A
C463        H472   1.082       .  S
C464        C467   1.377       .  A
N465        C466   1.355       .  A
N465        H475   1.044       .  S
C466        C467   1.393       .  A
C467        H473   1.083       .  S
N468        C469   1.356       .  A
N468        H476   1.046       .  S
C469        C470   1.395       .  A
C470        H474   1.082       .  S
C477        C482   1.384       .  A
C477        C478   1.412       .  A
C477        N483   1.351       .  A
C478        C479   1.412       .  A
C478        H489   1.082       .  S
C479        C488   1.390       .  A
C479        C480   1.384       .  A
C480        C481   1.396       .  A
C480        N486   1.337       .  A
C481        C482   1.394       .  A
C481        H490   1.083       .  S
C482        C485   1.368       .  A
N483        C484   1.359       .  A
N483        H493   1.045       .  S
C484        C485   1.391       .  A
C485        H491   1.083       .  S
N486        C487   1.353       .  A
N486        H494   1.043       .  S
C487        C488   1.401       .  A
C488        H492   1.082       .  S
C495        C500   1.384       .  A
C495        C496   1.406       .  A
C495        N501   1.345       .  A
C496        C497   1.406       .  A
C496        H507   1.082       .  S
C497        C506   1.383       .  A
C497        C498   1.385       .  A
C498        C499   1.401       .  A
C498        N504   1.340       .  A
C499        C500   1.399       .  A
C499        H508   1.083       .  S
C500        C503   1.376       .  A
N501        C502   1.357       .  A
N501        H511   1.045       .  S
C502        C503   1.394       .  A
C503        H509   1.083       .  S
N504        C505   1.353       .  A
N504        H512   1.044       .  S
C505        C506   1.396       .  A
C506        H510   1.082       .  S
C513        C518   1.384       .  A
C513        C514   1.403       .  A
C513        N519   1.343       .  A
C514        C515   1.402       .  A
C514        H525   1.082       .  S
C515        C524   1.377       .  A
C515        C516   1.384       .  A
C516        C517   1.407       .  A
C516        N522   1.347       .  A
C517        C518   1.407       .  A
C517        H526   1.082       .  S
C518        C521   1.383       .  A
N519        C520   1.356       .  A
N519        H529   1.045       .  S
C520        C521   1.399       .  A
C521        H527   1.082       .  S
N522        C523   1.358       .  A
N522        H530   1.044       .  S
C523        C524   1.395       .  A
C524        H528   1.082       .  S
C531        C536   1.384       .  A
C531        C532   1.404       .  A
C531        N537   1.343       .  A
C532        C533   1.403       .  A
C532        H543   1.082       .  S
C533        C542   1.379       .  A
C533        C534   1.385       .  A
C534        C535   1.402       .  A
C534        N540   1.341       .  A
C535        C536   1.400       .  A
C535        H544   1.082       .  S
C536        C539   1.377       .  A
N537        C538   1.357       .  A
N537        H547   1.044       .  S
C538        C539   1.394       .  A
C539        H545   1.082       .  S
N540        C541   1.355       .  A
N540        H548   1.044       .  S
C541        C542   1.396       .  A
C542        H546   1.082       .  S
C549        C554   1.384       .  A
C549        C550   1.412       .  A
C549        N555   1.350       .  A
C550        C551   1.411       .  A
C550        H561   1.082       .  S
C551        C560   1.391       .  A
C551        C552   1.385       .  A
C552        C553   1.397       .  A
C552        N558   1.336       .  A
C553        C554   1.394       .  A
C553        H562   1.083       .  S
C554        C557   1.370       .  A
N555        C556   1.359       .  A
N555        H565   1.045       .  S
C556        C557   1.391       .  A
C557        H563   1.083       .  S
N558        C559   1.353       .  A
N558        H566   1.044       .  S
C559        C560   1.400       .  A
C560        H564   1.082       .  S
C567        C572   1.385       .  A
C567        C568   1.397       .  A
C567        N573   1.338       .  A
C568        C569   1.395       .  A
C568        H579   1.083       .  S
C569        C578   1.369       .  A
C569        C570   1.385       .  A
C570        C571   1.410       .  A
C570        N576   1.350       .  A
C571        C572   1.411       .  A
C571        H580   1.082       .  S
C572        C575   1.388       .  A
N573        C574   1.352       .  A
N573        H583   1.044       .  S
C574        C575   1.399       .  A
C575        H581   1.082       .  S
N576        C577   1.358       .  A
N576        H584   1.045       .  S
C577        C578   1.389       .  A
C578        H582   1.083       .  S
C585        C590   1.385       .  A
C585        C586   1.403       .  A
C585        N591   1.344       .  A
C586        C587   1.402       .  A
C586        H597   1.082       .  S
C587        C596   1.376       .  A
C587        C588   1.385       .  A
C588        C589   1.403       .  A
C588        N594   1.344       .  A
C589        C590   1.403       .  A
C589        H598   1.082       .  S
C590        C593   1.377       .  A
N591        C592   1.356       .  A
N591        H601   1.045       .  S
C592        C593   1.396       .  A
C593        H599   1.082       .  S
N594        C595   1.356       .  A
N594        H602   1.045       .  S
C595        C596   1.395       .  A
C596        H600   1.083       .  S
C603        C608   1.384       .  A
C603        C604   1.407       .  A
C603        N609   1.347       .  A
C604        C605   1.406       .  A
C604        H615   1.082       .  S
C605        C614   1.383       .  A
C605        C606   1.384       .  A
C606        C607   1.403       .  A
C606        N612   1.343       .  A
C607        C608   1.402       .  A
C607        H616   1.082       .  S
C608        C611   1.377       .  A
N609        C610   1.357       .  A
N609        H619   1.044       .  S
C610        C611   1.396       .  A
C611        H617   1.083       .  S
N612        C613   1.357       .  A
N612        H620   1.044       .  S
C613        C614   1.398       .  A
C614        H618   1.082       .  S
C621        C626   1.384       .  A
C621        C622   1.404       .  A
C621        N627   1.345       .  A
C622        C623   1.404       .  A
C622        H633   1.082       .  S
C623        C632   1.378       .  A
C623        C624   1.385       .  A
C624        C625   1.402       .  A
C624        N630   1.343       .  A
C625        C626   1.402       .  A
C625        H634   1.082       .  S
C626        C629   1.376       .  A
N627        C628   1.356       .  A
N627        H637   1.041       .  S
C628        C629   1.395       .  A
C629        H635   1.083       .  S
N630        C631   1.356       .  A
N630        H638   1.043       .  S
C631        C632   1.396       .  A
C632        H636   1.082       .  S
C639        C644   1.385       .  A
C639        C640   1.402       .  A
C639        N645   1.343       .  A
C640        C641   1.401       .  A
C640        H651   1.082       .  S
C641        C650   1.376       .  A
C641        C642   1.384       .  A
C642        C643   1.405       .  A
C642        N648   1.346       .  A
C643        C644   1.404       .  A
C643        H652   1.082       .  S
C644        C647   1.380       .  A
N645        C646   1.353       .  A
N645        H655   1.045       .  S
C646        C647   1.394       .  A
C647        H653   1.082       .  S
N648        C649   1.357       .  A
N648        H656   1.045       .  S
C649        C650   1.394       .  A
C650        H654   1.082       .  S
C657        C662   1.385       .  A
C657        C658   1.393       .  A
C657        N663   1.336       .  A
C658        C659   1.392       .  A
C658        H669   1.083       .  S
C659        C668   1.364       .  A
C659        C660   1.384       .  A
C660        C661   1.413       .  A
C660        N666   1.354       .  A
C661        C662   1.414       .  A
C661        H670   1.082       .  S
C662        C665   1.390       .  A
N663        C664   1.351       .  A
N663        H673   1.046       .  S
C664        C665   1.401       .  A
C665        H671   1.082       .  S
N666        C667   1.360       .  A
N666        H674   1.045       .  S
C667        C668   1.388       .  A
C668        H672   1.083       .  S
C675        C680   1.385       .  A
C675        C676   1.402       .  A
C675        N681   1.343       .  A
C676        C677   1.401       .  A
C676        H687   1.082       .  S
C677        C686   1.377       .  A
C677        C678   1.385       .  A
C678        C679   1.403       .  A
C678        N684   1.343       .  A
C679        C680   1.402       .  A
C679        H688   1.082       .  S
C680        C683   1.377       .  A
N681        C682   1.355       .  A
N681        H691   1.044       .  S
C682        C683   1.396       .  A
C683        H689   1.083       .  S
N684        C685   1.356       .  A
N684        H692   1.044       .  S
C685        C686   1.394       .  A
C686        H690   1.082       .  S
C693        C698   1.384       .  A
C693        C694   1.414       .  A
C693        N699   1.353       .  A
C694        C695   1.414       .  A
C694        H705   1.082       .  S
C695        C704   1.392       .  A
C695        C696   1.385       .  A
C696        C697   1.394       .  A
C696        N702   1.336       .  A
C697        C698   1.393       .  A
C697        H706   1.083       .  S
C698        C701   1.366       .  A
N699        C700   1.360       .  A
N699        H709   1.045       .  S
C700        C701   1.390       .  A
C701        H707   1.083       .  S
N702        C703   1.352       .  A
N702        H710   1.044       .  S
C703        C704   1.401       .  A
C704        H708   1.082       .  S
C711        C716   1.385       .  A
C711        C712   1.391       .  A
C711        N717   1.333       .  A
C712        C713   1.390       .  A
C712        H723   1.083       .  S
C713        C722   1.361       .  A
C713        C714   1.384       .  A
C714        C715   1.414       .  A
C714        N720   1.354       .  A
C715        C716   1.414       .  A
C715        H724   1.082       .  S
C716        C719   1.391       .  A
N717        C718   1.350       .  A
N717        H727   1.044       .  S
C718        C719   1.401       .  A
C719        H725   1.082       .  S
N720        C721   1.361       .  A
N720        H728   1.044       .  S
C721        C722   1.390       .  A
C722        H726   1.083       .  S
C729        C734   1.385       .  A
C729        C730   1.405       .  A
C729        N735   1.344       .  A
C730        C731   1.404       .  A
C730        H741   1.082       .  S
C731        C740   1.380       .  A
C731        C732   1.384       .  A
C732        C733   1.401       .  A
C732        N738   1.341       .  A
C733        C734   1.400       .  A
C733        H742   1.082       .  S
C734        C737   1.377       .  A
N735        C736   1.356       .  A
N735        H745   1.044       .  S
C736        C737   1.392       .  A
C737        H743   1.083       .  S
N738        C739   1.355       .  A
N738        H746   1.045       .  S
C739        C740   1.396       .  A
C740        H744   1.082       .  S
C747        C752   1.384       .  A
C747        C748   1.403       .  A
C747        N753   1.344       .  A
C748        C749   1.403       .  A
C748        H759   1.082       .  S
C749        C758   1.378       .  A
C749        C750   1.385       .  A
C750        C751   1.405       .  A
C750        N756   1.346       .  A
C751        C752   1.404       .  A
C751        H760   1.082       .  S
C752        C755   1.380       .  A
N753        C754   1.355       .  A
N753        H763   1.045       .  S
C754        C755   1.397       .  A
C755        H761   1.082       .  S
N756        C757   1.355       .  A
N756        H764   1.044       .  S
C757        C758   1.394       .  A
C758        H762   1.082       .  S
C765        C770   1.384       .  A
C765        C766   1.412       .  A
C765        N771   1.351       .  A
C766        C767   1.412       .  A
C766        H777   1.082       .  S
C767        C776   1.389       .  A
C767        C768   1.385       .  A
C768        C769   1.392       .  A
C768        N774   1.334       .  A
C769        C770   1.391       .  A
C769        H778   1.083       .  S
C770        C773   1.363       .  A
N771        C772   1.359       .  A
N771        H781   1.045       .  S
C772        C773   1.389       .  A
C773        H779   1.083       .  S
N774        C775   1.351       .  A
N774        H782   1.044       .  S
C775        C776   1.400       .  A
C776        H780   1.082       .  S
C783        C788   1.384       .  A
C783        C784   1.393   1_655  A
C783        N789   1.333       .  A
C784        C785   1.391   1_455  A
C784        H795   1.083       .  S
C785        C794   1.365   1_655  A
C785        C786   1.383       .  A
C786        C787   1.417       .  A
C786        N792   1.354       .  A
C787        C788   1.416       .  A
C787        H796   1.082       .  S
C788        C791   1.395       .  A
N789        C790   1.352       .  A
N789        H799   1.045   1_655  S
C790        C791   1.404       .  A
C791        H797   1.082       .  S
N792        C793   1.363       .  A
N792        H800   1.044       .  S
C793        C794   1.390   1_655  A
C794        H798   1.083       .  S
C801        C806   1.384       .  A
C801        C802   1.411       .  A
C801        N807   1.350       .  A
C802        C803   1.410       .  A
C802        H813   1.082       .  S
C803        C812   1.389       .  A
C803        C804   1.385       .  A
C804        C805   1.397       .  A
C804        N810   1.337       .  A
C805        C806   1.395       .  A
C805        H814   1.083   1_545  S
C806        C809   1.370       .  A
N807        C808   1.358       .  A
N807        H817   1.045       .  S
C808        C809   1.391       .  A
C809        H815   1.083   1_545  S
N810        C811   1.353       .  A
N810        H818   1.042   1_545  S
C811        C812   1.400       .  A
C812        H816   1.082       .  S
C819        C824   1.384       .  A
C819        C820   1.404       .  A
C819        N825   1.346       .  A
C820        C821   1.404       .  A
C820        H831   1.082       .  S
C821        C830   1.378       .  A
C821        C822   1.384       .  A
C822        C823   1.404       .  A
C822        N828   1.346       .  A
C823        C824   1.404       .  A
C823        H832   1.082       .  S
C824        C827   1.378       .  A
N825        C826   1.357       .  A
N825        H835   1.043       .  S
C826        C827   1.396       .  A
C827        H833   1.082       .  S
N828        C829   1.357       .  A
N828        H836   1.043       .  S
C829        C830   1.397       .  A
C830        H834   1.082       .  S
C837        C842   1.384       .  A
C837        C838   1.403       .  A
C837        N843   1.343       .  A
C838        C839   1.402       .  A
C838        H849   1.082       .  S
C839        C848   1.379       .  A
C839        C840   1.384       .  A
C840        C841   1.409       .  A
C840        N846   1.348       .  A
C841        C842   1.408       .  A
C841        H850   1.082       .  S
C842        C845   1.385       .  A
N843        C844   1.356       .  A
N843        H853   1.045       .  S
C844        C845   1.398       .  A
C845        H851   1.082       .  S
N846        C847   1.357       .  A
N846        H854   1.045       .  S
C847        C848   1.394       .  A
C848        H852   1.082       .  S
C855        C860   1.385       .  A
C855        C856   1.411       .  A
C855        N861   1.351       .  A
C856        C857   1.411       .  A
C856        H867   1.082       .  S
C857        C866   1.388       .  A
C857        C858   1.385       .  A
C858        C859   1.393       .  A
C858        N864   1.335       .  A
C859        C860   1.392       .  A
C859        H868   1.083       .  S
C860        C863   1.363       .  A
N861        C862   1.359       .  A
N861        H871   1.045       .  S
C862        C863   1.389       .  A
C863        H869   1.083       .  S
N864        C865   1.351       .  A
N864        H872   1.042       .  S
C865        C866   1.399       .  A
C866        H870   1.082       .  S
C873        C878   1.384       .  A
C873        C874   1.408       .  A
C873        N879   1.348       .  A
C874        C875   1.407       .  A
C874        H885   1.082       .  S
C875        C884   1.382       .  A
C875        C876   1.385       .  A
C876        C877   1.401       .  A
C876        N882   1.343       .  A
C877        C878   1.401       .  A
C877        H886   1.082       .  S
C878        C881   1.375       .  A
N879        C880   1.358       .  A
N879        H889   1.046       .  S
C880        C881   1.394       .  A
C881        H887   1.083       .  S
N882        C883   1.353       .  A
N882        H890   1.043       .  S
C883        C884   1.396       .  A
C884        H888   1.082       .  S
C891        C896   1.385       .  A
C891        C892   1.404       .  A
C891        N897   1.342       .  A
C892        C893   1.402       .  A
C892        H903   1.082       .  S
C893        C902   1.379       .  A
C893        C894   1.385       .  A
C894        C895   1.401       .  A
C894        N900   1.340       .  A
C895        C896   1.399       .  A
C895        H904   1.082       .  S
C896        C899   1.376       .  A
N897        C898   1.356       .  A
N897        H907   1.044       .  S
C898        C899   1.394       .  A
C899        H905   1.082       .  S
N900        C901   1.355       .  A
N900        H908   1.044       .  S
C901        C902   1.396       .  A
C902        H906   1.082       .  S
C909        C914   1.385       .  A
C909        C910   1.403       .  A
C909        N915   1.342       .  A
C910        C911   1.401       .  A
C910        H921   1.082       .  S
C911        C920   1.378       .  A
C911        C912   1.384       .  A
C912        C913   1.403       .  A
C912        N918   1.342       .  A
C913        C914   1.402       .  A
C913        H922   1.082       .  S
C914        C917   1.378       .  A
N915        C916   1.355       .  A
N915        H925   1.044       .  S
C916        C917   1.396       .  A
C917        H923   1.083       .  S
N918        C919   1.356       .  A
N918        H926   1.044       .  S
C919        C920   1.394       .  A
C920        H924   1.082       .  S
C927        C932   1.385       .  A
C927        C928   1.396       .  A
C927        N933   1.337       .  A
C928        C929   1.395       .  A
C928        H939   1.083       .  S
C929        C938   1.367       .  A
C929        C930   1.385       .  A
C930        C931   1.409       .  A
C930        N936   1.350       .  A
C931        C932   1.409       .  A
C931        H940   1.082       .  S
C932        C935   1.386       .  A
N933        C934   1.352       .  A
N933        H943   1.044       .  S
C934        C935   1.397       .  A
C935        H941   1.082       .  S
N936        C937   1.358       .  A
N936        H944   1.045       .  S
C937        C938   1.390       .  A
C938        H942   1.083       .  S
C945        C950   1.384       .  A
C945        C946   1.406       .  A
C945        N951   1.347       .  A
C946        C947   1.406       .  A
C946        H957   1.082       .  S
C947        C956   1.381       .  A
C947        C948   1.384       .  A
C948        C949   1.406       .  A
C948        N954   1.347       .  A
C949        C950   1.405       .  A
C949        H958   1.082       .  S
C950        C953   1.380       .  A
N951        C952   1.358       .  A
N951        H961   1.044       .  S
C952        C953   1.397       .  A
C953        H959   1.082       .  S
N954        C955   1.358       .  A
N954        H962   1.045       .  S
C955        C956   1.398       .  A
C956        H960   1.082       .  S
C963        C968   1.385       .  A
C963        C964   1.402       .  A
C963        N969   1.343       .  A
C964        C965   1.401       .  A
C964        H975   1.082       .  S
C965        C974   1.376       .  A
C965        C966   1.384       .  A
C966        C967   1.404       .  A
C966        N972   1.345       .  A
C967        C968   1.404       .  A
C967        H976   1.082       .  S
C968        C971   1.379       .  A
N969        C970   1.354       .  A
N969        H979   1.043       .  S
C970        C971   1.394       .  A
C971        H977   1.082       .  S
N972        C973   1.356       .  A
N972        H980   1.045       .  S
C973        C974   1.394       .  A
C974        H978   1.082       .  S
C981        C986   1.385       .  A
C981        C982   1.393       .  A
C981        N987   1.333       .  A
C982        C983   1.391       .  A
C982        H993   1.083       .  S
C983        C992   1.363       .  A
C983        C984   1.384       .  A
C984        C985   1.413       .  A
C984        N990   1.353       .  A
C985        C986   1.413       .  A
C985        H994   1.082       .  S
C986        C989   1.392       .  A
N987        C988   1.352       .  A
N987        H997   1.043       .  S
C988        C989   1.401       .  A
C989        H995   1.082       .  S
N990        C991   1.360       .  A
N990        H998   1.045       .  S
C991        C992   1.390       .  A
C992        H996   1.083       .  S
C999       C1004   1.385       .  A
C999       C1000   1.403       .  A
C999       N1005   1.343       .  A
C1000      C1001   1.401       .  A
C1000      H1011   1.082       .  S
C1001      C1010   1.377       .  A
C1001      C1002   1.385       .  A
C1002      C1003   1.404       .  A
C1002      N1008   1.343       .  A
C1003      C1004   1.403       .  A
C1003      H1012   1.082       .  S
C1004      C1007   1.379       .  A
N1005      C1006   1.356       .  A
N1005      H1015   1.043       .  S
C1006      C1007   1.395       .  A
C1007      H1013   1.082       .  S
N1008      C1009   1.356       .  A
N1008      H1016   1.044       .  S
C1009      C1010   1.395       .  A
C1010      H1014   1.083       .  S
C1017      C1022   1.385       .  A
C1017      C1018   1.402       .  A
C1017      N1023   1.343       .  A
C1018      C1019   1.401       .  A
C1018      H1029   1.082       .  S
C1019      C1028   1.375       .  A
C1019      C1020   1.384       .  A
C1020      C1021   1.406       .  A
C1020      N1026   1.347       .  A
C1021      C1022   1.405       .  A
C1021      H1030   1.082       .  S
C1022      C1025   1.380       .  A
N1023      C1024   1.356       .  A
N1023      H1033   1.043       .  S
C1024      C1025   1.397       .  A
C1025      H1031   1.082       .  S
N1026      C1027   1.357       .  A
N1026      H1034   1.040       .  S
C1027      C1028   1.395       .  A
C1028      H1032   1.083       .  S
C1035      C1040   1.385       .  A
C1035      C1036   1.402       .  A
C1035      N1041   1.342       .  A
C1036      C1037   1.401       .  A
C1036      H1047   1.082       .  S
C1037      C1046   1.377       .  A
C1037      C1038   1.385       .  A
C1038      C1039   1.401       .  A
C1038      N1044   1.341       .  A
C1039      C1040   1.400       .  A
C1039      H1048   1.082       .  S
C1040      C1043   1.375       .  A
N1041      C1042   1.355       .  A
N1041      H1051   1.046       .  S
C1042      C1043   1.394       .  A
C1043      H1049   1.082       .  S
N1044      C1045   1.355       .  A
N1044      H1052   1.046       .  S
C1045      C1046   1.395       .  A
C1046      H1050   1.082       .  S
C1053      C1058   1.385       .  A
C1053      C1054   1.393       .  A
C1053      N1059   1.334       .  A
C1054      C1055   1.391       .  A
C1054      H1065   1.083       .  S
C1055      C1064   1.363       .  A
C1055      C1056   1.384       .  A
C1056      C1057   1.412       .  A
C1056      N1062   1.352       .  A
C1057      C1058   1.413       .  A
C1057      H1066   1.082       .  S
C1058      C1061   1.389       .  A
N1059      C1060   1.351       .  A
N1059      H1069   1.044       .  S
C1060      C1061   1.401       .  A
C1061      H1067   1.082       .  S
N1062      C1063   1.360       .  A
N1062      H1070   1.044       .  S
C1063      C1064   1.389       .  A
C1064      H1068   1.083       .  S
C1071      C1076   1.384       .  A
C1071      C1072   1.404       .  A
C1071      N1077   1.344       .  A
C1072      C1073   1.403       .  A
C1072      H1083   1.082       .  S
C1073      C1082   1.379       .  A
C1073      C1074   1.384       .  A
C1074      C1075   1.406       .  A
C1074      N1080   1.345       .  A
C1075      C1076   1.405       .  A
C1075      H1084   1.082       .  S
C1076      C1079   1.381       .  A
N1077      C1078   1.356       .  A
N1077      H1087   1.044       .  S
C1078      C1079   1.397       .  A
C1079      H1085   1.082       .  S
N1080      C1081   1.357       .  A
N1080      H1088   1.044       .  S
C1081      C1082   1.396       .  A
C1082      H1086   1.082       .  S
C1089      C1094   1.385       .  A
C1089      C1090   1.405       .  A
C1089      N1095   1.346       .  A
C1090      C1091   1.405       .  A
C1090      H1101   1.082       .  S
C1091      C1100   1.381       .  A
C1091      C1092   1.385       .  A
C1092      C1093   1.402       .  A
C1092      N1098   1.342       .  A
C1093      C1094   1.401       .  A
C1093      H1102   1.083       .  S
C1094      C1097   1.376       .  A
N1095      C1096   1.355       .  A
N1095      H1105   1.045       .  S
C1096      C1097   1.394       .  A
C1097      H1103   1.083       .  S
N1098      C1099   1.355       .  A
N1098      H1106   1.045       .  S
C1099      C1100   1.396       .  A
C1100      H1104   1.082       .  S
C1107      C1112   1.384       .  A
C1107      C1108   1.410       .  A
C1107      N1113   1.351       .  A
C1108      C1109   1.410       .  A
C1108      H1119   1.082       .  S
C1109      C1118   1.387       .  A
C1109      C1110   1.385       .  A
C1110      C1111   1.400       .  A
C1110      N1116   1.341       .  A
C1111      C1112   1.399       .  A
C1111      H1120   1.083       .  S
C1112      C1115   1.371       .  A
N1113      C1114   1.358       .  A
N1113      H1123   1.045       .  S
C1114      C1115   1.393       .  A
C1115      H1121   1.083       .  S
N1116      C1117   1.355       .  A
N1116      H1124   1.044       .  S
C1117      C1118   1.399       .  A
C1118      H1122   1.082       .  S
C1125      C1130   1.384       .  A
C1125      C1126   1.399   1_554  A
C1125      N1131   1.339       .  A
C1126      C1127   1.398   1_556  A
C1126      H1137   1.083       .  S
C1127      C1136   1.371       .  A
C1127      C1128   1.384       .  A
C1128      C1129   1.410       .  A
C1128      N1134   1.350       .  A
C1129      C1130   1.410       .  A
C1129      H1138   1.082       .  S
C1130      C1133   1.388       .  A
N1131      C1132   1.355       .  A
N1131      H1141   1.042   1_554  S
C1132      C1133   1.398       .  A
C1133      H1139   1.082       .  S
N1134      C1135   1.358       .  A
N1134      H1142   1.044       .  S
C1135      C1136   1.394       .  A
C1136      H1140   1.083   1_554  S
C1143      C1148   1.384       .  A
C1143      C1144   1.406       .  A
C1143      N1149   1.346       .  A
C1144      C1145   1.405       .  A
C1144      H1155   1.082       .  S
C1145      C1154   1.381       .  A
C1145      C1146   1.384       .  A
C1146      C1147   1.403       .  A
C1146      N1152   1.344       .  A
C1147      C1148   1.402       .  A
C1147      H1156   1.082       .  S
C1148      C1151   1.377       .  A
N1149      C1150   1.357       .  A
N1149      H1159   1.045       .  S
C1150      C1151   1.395       .  A
C1151      H1157   1.082       .  S
N1152      C1153   1.356       .  A
N1152      H1160   1.044       .  S
C1153      C1154   1.397       .  A
C1154      H1158   1.082       .  S
C1161      C1166   1.384       .  A
C1161      C1162   1.402       .  A
C1161      N1167   1.342       .  A
C1162      C1163   1.401       .  A
C1162      H1173   1.082       .  S
C1163      C1172   1.377       .  A
C1163      C1164   1.384       .  A
C1164      C1165   1.408       .  A
C1164      N1170   1.348       .  A
C1165      C1166   1.408       .  A
C1165      H1174   1.082       .  S
C1166      C1169   1.384       .  A
N1167      C1168   1.354       .  A
N1167      H1177   1.045       .  S
C1168      C1169   1.397       .  A
C1169      H1175   1.082       .  S
N1170      C1171   1.359       .  A
N1170      H1178   1.044       .  S
C1171      C1172   1.394       .  A
C1172      H1176   1.082       .  S
C1179      C1184   1.385       .  A
C1179      C1180   1.403       .  A
C1179      N1185   1.345       .  A
C1180      C1181   1.403       .  A
C1180      H1191   1.082       .  S
C1181      C1190   1.377       .  A
C1181      C1182   1.385       .  A
C1182      C1183   1.403       .  A
C1182      N1188   1.346       .  A
C1183      C1184   1.404       .  A
C1183      H1192   1.082       .  S
C1184      C1187   1.377       .  A
N1185      C1186   1.356       .  A
N1185      H1195   1.043       .  S
C1186      C1187   1.396       .  A
C1187      H1193   1.083       .  S
N1188      C1189   1.356       .  A
N1188      H1196   1.043       .  S
C1189      C1190   1.396       .  A
C1190      H1194   1.082       .  S
C1197      C1202   1.384       .  A
C1197      C1198   1.412       .  A
C1197      N1203   1.352       .  A
C1198      C1199   1.412       .  A
C1198      H1209   1.082       .  S
C1199      C1208   1.388       .  A
C1199      C1200   1.385       .  A
C1200      C1201   1.395       .  A
C1200      N1206   1.337       .  A
C1201      C1202   1.394       .  A
C1201      H1210   1.083   1_545  S
C1202      C1205   1.366       .  A
N1203      C1204   1.359       .  A
N1203      H1213   1.044       .  S
C1204      C1205   1.390       .  A
C1205      H1211   1.083   1_545  S
N1206      C1207   1.352       .  A
N1206      H1214   1.042   1_545  S
C1207      C1208   1.400       .  A
C1208      H1212   1.082       .  S
C1215      C1220   1.384       .  A
C1215      C1216   1.404       .  A
C1215      N1221   1.344       .  A
C1216      C1217   1.403       .  A
C1216      H1227   1.082       .  S
C1217      C1226   1.379       .  A
C1217      C1218   1.384       .  A
C1218      C1219   1.406       .  A
C1218      N1224   1.346       .  A
C1219      C1220   1.406       .  A
C1219      H1228   1.082       .  S
C1220      C1223   1.381       .  A
N1221      C1222   1.356       .  A
N1221      H1231   1.044       .  S
C1222      C1223   1.398       .  A
C1223      H1229   1.082       .  S
N1224      C1225   1.358       .  A
N1224      H1232   1.044       .  S
C1225      C1226   1.396       .  A
C1226      H1230   1.082       .  S
