geometry optimzed in LAMMPS
_audit_creation_date              2020-11-30 
_audit_creation_method            'lammps2cif' 
_symmetry_space_group_name_H-M    'P1' 
_symmetry_Int_Tables_number       1 
_symmetry_cell_setting            triclinic 
loop_ 
_symmetry_equiv_pos_as_xyz 
  x,y,z 
_cell_length_a                    27.85447027 
_cell_length_b                    27.748209143537917 
_cell_length_c                    26.546871233818752 
_cell_angle_alpha                 91.56986883830997 
_cell_angle_beta                  85.40662590325636 
_cell_angle_gamma                 120.94526761117228 
loop_ 
_atom_site_label 
_atom_site_type_symbol 
_atom_site_fract_x 
_atom_site_fract_y 
_atom_site_fract_z 
_atom_site_charge 
N1          N  0.78151226  0.20062953  0.35615252    -0.03000
C2          C  0.73230100  0.18851890  0.33677128    -0.00400
C3          C  0.71678433  0.22601798  0.35610286    -0.23300
C4          C  0.75568035  0.26092544  0.05485983    -0.23500
C5          C  0.79520320  0.24526197  0.05423667    -0.00500
H6          H  0.68129585  0.22891854  0.34718641     0.13300
H7          H  0.75639899  0.29582806  0.07477964     0.13300
N8          N  0.26169663  0.44053245  0.99777747    -0.03000
C9          C  0.25359444  0.47941735  0.31020492    -0.00400
C10         C  0.28815613  0.53162965  0.32993113    -0.23300
C11         C  0.31886240  0.52412910  0.03044340    -0.23500
C12         C  0.30195586  0.46758662  0.03025183    -0.00500
H13         H  0.29147156  0.57087668  0.32010756     0.13300
H14         H  0.35222726  0.55685827  0.05091838     0.13300
N15         N  0.48917467  0.21598373  0.01496252    -0.03000
C16         C  0.52443473  0.20500676  0.03871724    -0.00400
C17         C  0.57854462  0.25128439  0.03360762    -0.23300
C18         C  0.57730338  0.29072374  0.33871922    -0.23500
C19         C  0.52227796  0.26903897  0.32839160    -0.00500
H20         H  0.61570592  0.25570177  0.04828717     0.13300
H21         H  0.61286508  0.33122269  0.32673397     0.13300
N22         N  0.24969872  0.74447809  0.99360760    -0.03000
C23         C  0.30652372  0.77033624  0.32198569    -0.00400
C24         C  0.32332964  0.73447390  0.33749284    -0.23300
C25         C  0.27525709  0.68551448  0.02020669    -0.23500
C26         C  0.23052880  0.69272070  0.01341096    -0.00500
H27         H  0.36577574  0.74253525  0.33644189     0.13300
H28         H  0.27309095  0.64842619  0.03501445     0.13300
N29         N  0.80486900  0.50494468  0.35441861    -0.03000
C30         C  0.83046175  0.47619951  0.33696982    -0.00400
C31         C  0.80257331  0.42273376  0.35775362    -0.23300
C32         C  0.75887784  0.41782693  0.05539823    -0.23500
C33         C  0.75981390  0.46826700  0.05293869    -0.00500
H34         H  0.81375003  0.39086008  0.35166364     0.13300
H35         H  0.72919772  0.38065733  0.07753611     0.13300
N36         N  0.56625065  0.73748793  0.34361970    -0.03000
C37         C  0.53454420  0.75227475  0.04051243    -0.00400
C38         C  0.47960919  0.70817219  0.04524609    -0.23300
C39         C  0.47802902  0.66497474  0.35021798    -0.23500
C40         C  0.53205176  0.68392037  0.32938354    -0.00500
H41         H  0.44408590  0.70850522  0.06461468     0.13300
H42         H  0.44088533  0.62533490  0.34286809     0.13300
O43         O  0.00217698  0.04681415  0.27606783    -0.87800
C44         C  0.09789042  0.05961150  0.05831334     0.88200
Mg45       Mg  0.91521201  0.98346612  0.27618255     1.58100
O46         O  0.12284853  0.00378111  0.27872711    -0.87600
O47         O  0.08154238  0.07835547  0.23005961    -0.74900
C48         C  0.90278663  0.74450770  0.99897170     0.93200
O49         O  0.96278299  0.01727345  0.06213123    -0.74700
O50         O  0.87227014  0.76650815  0.00273365    -0.82200
Mg51       Mg  0.02696885  0.09286028  0.01237856     1.58000
C52         C  0.13305975  0.85943367  0.29528651     0.93200
O53         O  0.08982967  0.17520777  0.30423894    -0.80500
H54         H  0.14651190  0.00995672  0.20489281    -0.05800
C55         C  0.01665883  0.88891465  0.05503215     0.88100
O56         O  0.93525964  0.92670403  0.22473282    -0.75000
O57         O  0.08885829  0.06887631  0.01588735    -0.87800
O58         O  0.15740577  0.91230722  0.30108173    -0.80600
C59         C  0.24888029  0.08642502  0.00741085     0.93300
C60         C  0.14316836  0.20418438  0.29824176     0.93100
Mg61       Mg  0.01875771  0.85651704  0.27878078     1.58000
O62         O  0.95509975  0.77376387  0.98620082    -0.80500
O63         O  0.08396835  0.93207105  0.22853393    -0.74700
O64         O  0.22402072  0.11177466  0.99531589    -0.80600
O65         O  0.96147772  0.11879646  0.01081358    -0.82300
O66         O  0.82806803  0.84012703  0.29032033    -0.80600
C67         C  0.11942774  0.98335751  0.23629293     0.87600
O68         O  0.95789477  0.88063022  0.27376359    -0.87700
O69         O  0.04332991  0.90461058  0.01335893    -0.87800
O70         O  0.96489389  0.87313195  0.06079792    -0.74900
Mg71       Mg  0.14770044  0.09069005  0.28401350     1.58000
O72         O  0.22326958  0.03319417  0.01132708    -0.82300
H73         H  0.00922006  0.06260711  0.20194664    -0.06000
O74         O  0.92421812  0.94743109  0.01010052    -0.87500
H75         H  0.89923717  0.93921111  0.08371876    -0.05800
H76         H  0.95474601  0.86869637  0.19917324    -0.06000
C77         C  0.92690167  0.96663116  0.05298536     0.87500
C78         C  0.02982050  0.06288274  0.23488049     0.88100
C79         C  0.94926125  0.89054001  0.23141561     0.88200
H80         H  0.03819599  0.88994336  0.08753543    -0.06000
O81         O  0.11151715  0.02327467  0.06536471    -0.75000
Mg82       Mg  0.89945513  0.85985790  0.00578007     1.58000
H83         H  0.09278045  0.08196918  0.09031215    -0.06000
C84         C  0.91032599  0.09100794  0.00064274     0.93200
O85         O  0.82382213  0.91746462  0.28202667    -0.82200
C86         C  0.80037820  0.86474881  0.28824365     0.93200
O87         O  0.17296334  0.18163131  0.29205045    -0.82200
Mg88       Mg  0.13093968  0.96748388  0.01239246     1.58200
O89         O  0.88839575  0.04176243  0.98267659    -0.83300
O90         O  0.08146912  0.83007637  0.28743033    -0.82200
C91         C  0.08617705  0.46274576  0.18370154     0.87000
C92         C  0.05722954  0.48444198  0.22183087    -0.53200
C93         C  0.01286090  0.48688334  0.20551282     0.09900
C94         C  0.00618593  0.47267550  0.14842564     0.20900
C95         C  0.03858009  0.40777808  0.16301712    -0.54000
C96         C  0.99652029  0.41246782  0.14509282     0.10000
C97         C  0.10638855  0.50481440  0.13995448    -0.53500
C98         C  0.06563437  0.51089476  0.12128371     0.10600
H99         H  0.07338410  0.49872927  0.25837351     0.15100
H100        H  0.97274111  0.47615080  0.13199367     0.00900
H101        H  0.03793575  0.36831851  0.16291627     0.15400
H102        H  0.14959752  0.53020338  0.12499694     0.15200
C103        C  0.54623696  0.94714360  0.13557728     0.87000
C104        C  0.52805397  0.98160199  0.10638817    -0.53200
C105        C  0.51429187  0.01468800  0.13573579     0.09900
C106        C  0.51838274  0.00939116  0.19265646     0.20900
C107        C  0.59396967  0.99179745  0.16614100    -0.54000
C108        C  0.57953951  0.02373606  0.19675654     0.10000
C109        C  0.49707630  0.91406955  0.17476673    -0.53500
C110        C  0.48197059  0.94584672  0.20409840     0.10600
H111        H  0.53155580  0.98562412  0.06564770     0.15100
H112        H  0.50606331  0.03507624  0.21692385     0.00900
H113        H  0.63580872  0.99784112  0.16381055     0.15400
H114        H  0.47475802  0.86850757  0.17826151     0.15200
C115        C  0.46159473  0.44450578  0.13322430     0.87000
C116        C  0.51605978  0.45131457  0.10667245    -0.53200
C117        C  0.55996449  0.47091226  0.13641409     0.09900
C118        C  0.54495596  0.48078425  0.19105183     0.20900
C119        C  0.44877379  0.40440882  0.17739166    -0.54000
C120        C  0.49271588  0.42195913  0.20764524     0.10000
C121        C  0.47717850  0.49926425  0.15930626    -0.53500
C122        C  0.52240786  0.52170311  0.18727939     0.10600
H123        H  0.51827849  0.43821476  0.06822107     0.15100
H124        H  0.58134479  0.49597331  0.21386282     0.00900
H125        H  0.41016734  0.36408044  0.18240947     0.15400
H126        H  0.44898952  0.51500992  0.15855701     0.15200
C127        C  0.62477898  0.77232216  0.32923433     0.00400
C128        C  0.66282574  0.78407594  0.36544343    -0.11500
C129        C  0.72024773  0.81328323  0.35190517     0.02600
C130        C  0.74002348  0.83234282  0.30150767     0.00300
C131        C  0.70201270  0.82279359  0.26559496    -0.11500
C132        C  0.64428638  0.79218559  0.27925174     0.02500
H133        H  0.64724520  0.76869124  0.07057020     0.15500
H134        H  0.71729731  0.83840464  0.22713976     0.15500
C135        C  0.60520924  0.78105182  0.24207120     0.37100
C136        C  0.75808782  0.82361301  0.39052802     0.37000
N137        N  0.57237234  0.77070085  0.21323785    -0.43200
N138        N  0.78822094  0.83173083  0.42154609    -0.43200
C139        C  0.55943025  0.90669856  0.10462424     0.00400
C140        C  0.54305333  0.89228339  0.05471774    -0.11500
C141        C  0.53803995  0.84391462  0.03196707     0.02600
C142        C  0.55213716  0.80992307  0.05774353     0.00300
C143        C  0.57563721  0.82768181  0.10411573    -0.11500
C144        C  0.57884681  0.87501077  0.12801179     0.02500
H145        H  0.52925607  0.91511520  0.03402186     0.15500
H146        H  0.58859401  0.80257012  0.12277062     0.15500
C147        C  0.59984199  0.88845892  0.17757233     0.37100
C148        C  0.51440353  0.82771231  0.31684265     0.37000
N149        N  0.61717974  0.90002440  0.21708953    -0.43200
N150        N  0.49509166  0.81469778  0.27822201    -0.43200
C151        C  0.54450350  0.65482274  0.28711162     0.00400
C152        C  0.51446842  0.64427277  0.24459880    -0.11500
C153        C  0.51692224  0.61024199  0.20633441     0.02600
C154        C  0.54071163  0.57658075  0.21459313     0.00300
C155        C  0.57837029  0.59430491  0.25277579    -0.11500
C156        C  0.58214591  0.63504954  0.28796380     0.02500
H157        H  0.48986552  0.66396731  0.24072199     0.15500
H158        H  0.60456796  0.57653281  0.25548608     0.15500
C159        C  0.62277088  0.65343168  0.32530384     0.37100
C160        C  0.49879190  0.61514850  0.15830303     0.37000
N161        N  0.65546569  0.66731152  0.02158468    -0.43200
N162        N  0.48381300  0.61918741  0.12010369    -0.43200
C163        C  0.82865584  0.56463517  0.01454392     0.00400
C164        C  0.88307959  0.60138241  0.02906919    -0.11500
C165        C  0.90762922  0.65974612  0.02507939     0.02600
C166        C  0.87708911  0.68281657  0.00691136     0.00300
C167        C  0.82258633  0.64586854  0.32547203    -0.11500
C168        C  0.79879221  0.58728187  0.32826573     0.02500
H169        H  0.90618429  0.58416998  0.04436155     0.15500
H170        H  0.79922822  0.66270493  0.31001360     0.15500
C171        C  0.74463646  0.55104086  0.30921995     0.37100
C172        C  0.96387689  0.69466344  0.04082130     0.37000
N173        N  0.70134659  0.52168575  0.29370152    -0.43200
N174        N  0.00905962  0.72243931  0.05316936    -0.43200
C175        C  0.71124617  0.47324388  0.07675877     0.00400
C176        C  0.65770315  0.42389981  0.07823676    -0.11500
C177        C  0.60980997  0.42175647  0.10131201     0.02600
C178        C  0.61253997  0.47110467  0.11932322     0.00300
C179        C  0.66569446  0.52008874  0.12092539    -0.11500
C180        C  0.71509902  0.52088087  0.10188240     0.02500
H181        H  0.65295336  0.38559634  0.39586037     0.15500
H182        H  0.66871884  0.55738832  0.13806150     0.15500
C183        C  0.76812438  0.56861269  0.11369935     0.37100
C184        C  0.55896476  0.36746126  0.10875048     0.37000
N185        N  0.80990464  0.60714385  0.12464464    -0.43200
N186        N  0.51864572  0.32368358  0.11432783    -0.43200
C187        C  0.88445664  0.49729304  0.30491592     0.00400
C188        C  0.92455185  0.48909467  0.32498105    -0.11500
C189        C  0.96516122  0.48492024  0.29399460     0.02600
C190        C  0.97221069  0.49609492  0.24095896     0.00300
C191        C  0.93488215  0.51007887  0.22154001    -0.11500
C192        C  0.89045499  0.50906943  0.25259702     0.02500
H193        H  0.91940625  0.47846310  0.03142395     0.15500
H194        H  0.93791428  0.51867793  0.18156430     0.15500
C195        C  0.84890951  0.51530874  0.22925628     0.37100
C196        C  0.99056276  0.45865005  0.31757277     0.37000
N197        N  0.81543134  0.51993408  0.21036343    -0.43200
N198        N  0.01029482  0.43660161  0.33627522    -0.43200
C199        C  0.21805047  0.77087210  0.31950059     0.00400
C200        C  0.22997432  0.81863727  0.01395616    -0.11500
C201        C  0.20375173  0.84866336  0.00573130     0.02600
C202        C  0.16470345  0.83099328  0.30179426     0.00300
C203        C  0.15213061  0.78240241  0.27423139    -0.11500
C204        C  0.17884525  0.75247667  0.28260685     0.02500
H205        H  0.26004974  0.83231318  0.04245513     0.15500
H206        H  0.12179015  0.76809656  0.24593745     0.15500
C207        C  0.16720474  0.70462461  0.25172268     0.37100
C208        C  0.21564307  0.89547230  0.03836328     0.37000
N209        N  0.15774419  0.66637838  0.22668413    -0.43200
N210        N  0.22519604  0.93268225  0.06486348    -0.43200
C211        C  0.08331905  0.55354407  0.08017232     0.00400
C212        C  0.11134516  0.54696061  0.03646305    -0.11500
C213        C  0.15328995  0.59348387  0.00853155     0.02600
C214        C  0.17124250  0.64791783  0.02612265     0.00300
C215        C  0.13848077  0.65511175  0.06515382    -0.11500
C216        C  0.09357101  0.60799733  0.09148027     0.02500
H217        H  0.10610072  0.50621478  0.02793803     0.15500
H218        H  0.15107493  0.69706292  0.07819707     0.15500
C219        C  0.06312405  0.61704363  0.13347233     0.37100
C220        C  0.18227643  0.58552171  0.29803937     0.37000
N221        N  0.03863665  0.62499652  0.16667256    -0.43200
N222        N  0.20712140  0.58255744  0.26232753    -0.43200
C223        C  0.34587406  0.82672107  0.29873198     0.00400
C224        C  0.33570658  0.84001297  0.25162551    -0.11500
C225        C  0.37833135  0.88566482  0.22278777     0.02600
C226        C  0.43227599  0.91778703  0.24062061     0.00300
C227        C  0.44035043  0.90889556  0.29012432    -0.11500
C228        C  0.39730183  0.86395534  0.31946795     0.02500
H229        H  0.29614119  0.81235674  0.23550843     0.15500
H230        H  0.48160399  0.93396854  0.30414983     0.15500
C231        C  0.40740865  0.85464571  0.03646982     0.37100
C232        C  0.36724628  0.89637720  0.17335723     0.37000
N233        N  0.41442870  0.84609085  0.07684269    -0.43200
N234        N  0.35819721  0.90536785  0.13398383    -0.43200
C235        C  0.31024772  0.11940351  0.01347572     0.00400
C236        C  0.34283333  0.09568642  0.99700077    -0.11500
C237        C  0.40153253  0.12668720  0.99677308     0.02600
C238        C  0.42881125  0.18214650  0.01483636     0.00300
C239        C  0.39632084  0.20560810  0.03202802    -0.11500
C240        C  0.33773580  0.17514573  0.03116342     0.02500
H241        H  0.32256513  0.05349326  0.98209448     0.15500
H242        H  0.41704134  0.24805217  0.04630684     0.15500
C243        C  0.30706033  0.20194289  0.04943633     0.37100
C244        C  0.43285314  0.10196947  0.97481123     0.37000
N245        N  0.28269266  0.22365567  0.06404413    -0.43200
N246        N  0.45769664  0.08198238  0.95691907    -0.43200
C247        C  0.51327608  0.06201516  0.11192311     0.00400
C248        C  0.46847283  0.07143356  0.12164505    -0.11500
C249        C  0.46913432  0.11689443  0.09805177     0.02600
C250        C  0.51346484  0.15100281  0.06146830     0.00300
C251        C  0.55622137  0.13865711  0.05078757    -0.11500
C252        C  0.55871799  0.09842268  0.07840646     0.02500
H253        H  0.43403888  0.04448095  0.14867783     0.15500
H254        H  0.59043230  0.16340166  0.35630285     0.15500
C255        C  0.61182602  0.10120472  0.07900471     0.37100
C256        C  0.42530324  0.12820242  0.11397220     0.37000
N257        N  0.65365445  0.10315582  0.08384264    -0.43200
N258        N  0.38925350  0.13596351  0.12716577    -0.43200
C259        C  0.50499354  0.30346398  0.30144291     0.00400
C260        C  0.52872908  0.35986412  0.31510774    -0.11500
C261        C  0.52439171  0.39868238  0.28661027     0.02600
C262        C  0.49415164  0.38146801  0.24302684     0.00300
C263        C  0.46822991  0.32398938  0.23026259    -0.11500
C264        C  0.47441598  0.28554880  0.25824704     0.02500
H265        H  0.55427172  0.37495010  0.01339621     0.15500
H266        H  0.44616917  0.30930649  0.19622104     0.15500
C267        C  0.45443188  0.23012268  0.23852313     0.37100
C268        C  0.55465419  0.45592015  0.30277194     0.37000
N269        N  0.43879120  0.18577780  0.22243850    -0.43200
N270        N  0.58153303  0.50092951  0.31759526    -0.43200
C271        C  0.17123853  0.26571388  0.30330196     0.00400
C272        C  0.22244506  0.30086053  0.94176640    -0.11500
C273        C  0.25265635  0.35882202  0.95033475     0.02600
C274        C  0.23218116  0.38163843  0.32136491     0.00300
C275        C  0.18179915  0.34690028  0.34965274    -0.11500
C276        C  0.15073284  0.28953590  0.34067103     0.02500
H277        H  0.23895507  0.28304875  0.91353288     0.15500
H278        H  0.16695669  0.36501569  0.37912386     0.15500
C279        C  0.09965411  0.25617663  0.37249981     0.37100
C280        C  0.30502288  0.39459908  0.92138742     0.37000
N281        N  0.05879118  0.22985787  0.39811938    -0.43200
N282        N  0.34732479  0.42443494  0.89902264    -0.43200
C283        C  0.33652633  0.44634093  0.04877552     0.00400
C284        C  0.39244609  0.47403900  0.02974454    -0.11500
C285        C  0.43251272  0.47116385  0.05515821     0.02600
C286        C  0.41678669  0.43354572  0.09689747     0.00300
C287        C  0.35892715  0.39972480  0.11167379    -0.11500
C288        C  0.31913237  0.40779970  0.08948801     0.02500
H289        H  0.40613124  0.50456239  0.99907856     0.15500
H290        H  0.34511411  0.37196484  0.14424813     0.15500
C291        C  0.26283042  0.38173649  0.11326245     0.37100
C292        C  0.48899670  0.51737041  0.04598182     0.37000
N293        N  0.21810231  0.36130896  0.13325678    -0.43200
N294        N  0.53416951  0.55550973  0.04296839    -0.43200
C295        C  0.13109250  0.45648825  0.20846631     0.00400
C296        C  0.18901645  0.48793292  0.19240699    -0.11500
C297        C  0.22982178  0.49319922  0.22378498     0.02600
C298        C  0.21311590  0.46787062  0.27225766     0.00300
C299        C  0.15625897  0.43179502  0.28558318    -0.11500
C300        C  0.11604014  0.42326509  0.25292266     0.02500
H301        H  0.20367104  0.50989850  0.15649550     0.15500
H302        H  0.14274144  0.41057988  0.32201439     0.15500
C303        C  0.06054472  0.37670266  0.26444325     0.37100
C304        C  0.28847945  0.52621739  0.20631319     0.37000
N305        N  0.01764738  0.33647477  0.27335762    -0.43200
N306        N  0.33551766  0.55242143  0.19237846    -0.43200
C307        C  0.87581561  0.11758109  0.00716145     0.00400
C308        C  0.85920672  0.13158987  0.29730250    -0.11500
C309        C  0.82823283  0.15876622  0.30126991     0.02600
C310        C  0.81215544  0.17129127  0.01620897     0.00300
C311        C  0.82842381  0.15646981  0.05931388    -0.11500
C312        C  0.86012719  0.13017134  0.05515521     0.02500
H313        H  0.87171787  0.12247467  0.26021245     0.15500
H314        H  0.81590130  0.16526994  0.09649819     0.15500
C315        C  0.87469104  0.11498145  0.10064745     0.37100
C316        C  0.81604533  0.17557194  0.25527500     0.37000
N317        N  0.88612467  0.10252066  0.13711550    -0.43200
N318        N  0.80670944  0.18912943  0.21819493    -0.43200
C319        C  0.84822167  0.27969801  0.08007115     0.00400
C320        C  0.84463718  0.29714984  0.12973562    -0.11500
C321        C  0.89235249  0.33938796  0.15188739     0.02600
C322        C  0.94566906  0.36340752  0.12522108     0.00300
C323        C  0.94995163  0.34198611  0.07759505    -0.11500
C324        C  0.90152203  0.30353325  0.05366943     0.02500
H325        H  0.80381813  0.27969483  0.15041297     0.15500
H326        H  0.99091044  0.35802816  0.05781104     0.15500
C327        C  0.90578889  0.29585272  0.33338139     0.37100
C328        C  0.88503762  0.35683380  0.20212177     0.37000
N329        N  0.90591261  0.28940114  0.29018272    -0.43200
N330        N  0.87762708  0.36949671  0.24257704    -0.43200
C331        C  0.61943202  0.06622704  0.23177305     0.00400
C332        C  0.64621340  0.05000343  0.26441185    -0.11500
C333        C  0.68360965  0.08777142  0.29868905     0.02600
C334        C  0.69772423  0.14483967  0.29894473     0.00300
C335        C  0.67186402  0.16080084  0.26477434    -0.11500
C336        C  0.63200572  0.12232915  0.23310363     0.02500
H337        H  0.63597034  0.00662935  0.26459380     0.15500
H338        H  0.68177124  0.20401552  0.26348446     0.15500
C339        C  0.60478470  0.14259975  0.20326836     0.37100
C340        C  0.70266960  0.06455791  0.33468823     0.37000
N341        N  0.58373731  0.16117846  0.18110703    -0.43200
N342        N  0.71646104  0.04408230  0.36324943    -0.43200
N343        N  0.78150674  0.20060455  0.68945974    -0.03000
C344        C  0.73227510  0.18848433  0.67012299    -0.00400
C345        C  0.71675621  0.22597105  0.68948559    -0.23300
C346        C  0.75569036  0.26094216  0.38813639    -0.23500
C347        C  0.79520167  0.24526530  0.38753297    -0.00500
H348        H  0.68125705  0.22886739  0.68059683     0.13300
H349        H  0.75640987  0.29584732  0.40805181     0.13300
N350        N  0.26161952  0.44052686  0.33118513    -0.03000
C351        C  0.25358482  0.47944856  0.64352443    -0.00400
C352        C  0.28813199  0.53165627  0.66326394    -0.23300
C353        C  0.31878517  0.52409886  0.36388945    -0.23500
C354        C  0.30185528  0.46755012  0.36368205    -0.00500
H355        H  0.29140937  0.57089481  0.65347688     0.13300
H356        H  0.35215886  0.55681492  0.38436773     0.13300
N357        N  0.48924600  0.21596252  0.34832141    -0.03000
C358        C  0.52449912  0.20498977  0.37209295    -0.00400
C359        C  0.57860746  0.25127120  0.36700126    -0.23300
C360        C  0.57722872  0.29075474  0.67221450    -0.23500
C361        C  0.52221032  0.26906033  0.66186203    -0.00500
H362        H  0.61576210  0.25569021  0.38169758     0.13300
H363        H  0.61278794  0.33125660  0.66023440     0.13300
N364        N  0.24971867  0.74452838  0.32699759    -0.03000
C365        C  0.30657523  0.77036267  0.65535121    -0.00400
C366        C  0.32337012  0.73449690  0.67087286    -0.23300
C367        C  0.27533028  0.68558486  0.35352934    -0.23500
C368        C  0.23058077  0.69277607  0.34679137    -0.00500
H369        H  0.36581368  0.74255339  0.66983748     0.13300
H370        H  0.27319197  0.64850085  0.36831236     0.13300
N371        N  0.80482931  0.50496523  0.68770769    -0.03000
C372        C  0.83039797  0.47622113  0.67019155    -0.00400
C373        C  0.80253435  0.42275013  0.69096022    -0.23300
C374        C  0.75890971  0.41793226  0.38897891    -0.23500
C375        C  0.75981825  0.46835161  0.38643349    -0.00500
H376        H  0.81371576  0.39088341  0.68483401     0.13300
H377        H  0.72923010  0.38078433  0.41114300     0.13300
N378        N  0.56626412  0.73754863  0.67686289    -0.03000
C379        C  0.53458737  0.75223057  0.37382977    -0.00400
C380        C  0.47965786  0.70811430  0.37855989    -0.23300
C381        C  0.47803503  0.66504702  0.68355926    -0.23500
C382        C  0.53203042  0.68397442  0.66265896    -0.00500
H383        H  0.44412467  0.70843618  0.39791915     0.13300
H384        H  0.44087398  0.62540457  0.67625313     0.13300
O385        O  0.00221939  0.04682408  0.60921418    -0.87800
C386        C  0.09791486  0.05964432  0.39171115     0.88200
Mg387      Mg  0.91524547  0.98347369  0.60931469     1.58100
O388        O  0.12287568  0.00379817  0.61200795    -0.87600
O389        O  0.08160898  0.07836097  0.56324484    -0.74900
C390        C  0.90281607  0.74455635  0.33234378     0.93200
O391        O  0.96279825  0.01730179  0.39550336    -0.74700
O392        O  0.87230045  0.76655654  0.33609428    -0.82200
Mg393      Mg  0.02699229  0.09288157  0.34574816     1.58000
C394        C  0.13308782  0.85946394  0.62866591     0.93200
O395        O  0.08987597  0.17524927  0.63735192    -0.80500
H396        H  0.14657271  0.00994057  0.53818356    -0.05800
C397        C  0.01667774  0.88895583  0.38842412     0.88100
O398        O  0.93530984  0.92668656  0.55791541    -0.75000
O399        O  0.08888522  0.06889956  0.34928069    -0.87800
O400        O  0.15741600  0.91233279  0.63448122    -0.80600
C401        C  0.24893393  0.08645848  0.34082677     0.93300
C402        C  0.14321856  0.20422716  0.63140019     0.93100
Mg403      Mg  0.01878221  0.85652848  0.61208624     1.58000
O404        O  0.95513071  0.77381159  0.31958019    -0.80500
O405        O  0.08401679  0.93206546  0.56183613    -0.74700
O406        O  0.22407844  0.11181571  0.32873712    -0.80600
O407        O  0.96150333  0.11882293  0.34416243    -0.82300
O408        O  0.82807551  0.84013512  0.62348153    -0.80600
C409        C  0.11947384  0.98335529  0.56958452     0.87600
O410        O  0.95791843  0.88063254  0.60699997    -0.87700
O411        O  0.04336021  0.90465522  0.34675567    -0.87800
O412        O  0.96491144  0.87317120  0.39417790    -0.74900
Mg413      Mg  0.14773756  0.09071526  0.61724543     1.58000
O414        O  0.22331231  0.03322676  0.34474835    -0.82300
H415        H  0.00930111  0.06258959  0.53508300    -0.06000
O416        O  0.92424581  0.94746714  0.34346365    -0.87500
H417        H  0.89924055  0.93923904  0.41707675    -0.05800
H418        H  0.95480554  0.86866818  0.53241174    -0.06000
C419        C  0.92691641  0.96666212  0.38634946     0.87500
C420        C  0.02988387  0.06287985  0.56803494     0.88100
C421        C  0.94930666  0.89052538  0.56463570     0.88200
H422        H  0.03820571  0.88998246  0.42093365    -0.06000
O423        O  0.11154941  0.02331543  0.39877204    -0.75000
Mg424      Mg  0.89948974  0.85990088  0.33914018     1.58000
H425        H  0.09279882  0.08200490  0.42370447    -0.06000
C426        C  0.91035348  0.09103519  0.33398522     0.93200
O427        O  0.82384114  0.91747239  0.61514244    -0.82200
C428        C  0.80038793  0.86475745  0.62138023     0.93200
O429        O  0.17301203  0.18166926  0.62524595    -0.82200
Mg430      Mg  0.13097502  0.96752189  0.34580642     1.58200
O431        O  0.88842516  0.04178860  0.31602315    -0.83300
O432        O  0.08150032  0.83009993  0.62079553    -0.82200
C433        C  0.08614029  0.46275628  0.51705058     0.87000
C434        C  0.05717926  0.48445786  0.55515881    -0.53200
C435        C  0.01281793  0.48689627  0.53881601     0.09900
C436        C  0.00616673  0.47267697  0.48172792     0.20900
C437        C  0.03855305  0.40778292  0.49636688    -0.54000
C438        C  0.99650338  0.41246856  0.47841328     0.10000
C439        C  0.10636876  0.50482102  0.47329925    -0.53500
C440        C  0.06562428  0.51089813  0.45460574     0.10600
H441        H  0.07333108  0.49876135  0.59169912     0.15100
H442        H  0.97273246  0.47614694  0.46526945     0.00900
H443        H  0.03790569  0.36832233  0.49629362     0.15400
H444        H  0.14958617  0.53022742  0.45836896     0.15200
C445        C  0.54630768  0.94711673  0.46889910     0.87000
C446        C  0.52812451  0.98157576  0.43971118    -0.53200
C447        C  0.51434884  0.01464997  0.46906014     0.09900
C448        C  0.51843413  0.00934987  0.52597885     0.20900
C449        C  0.59403503  0.99177554  0.49946763    -0.54000
C450        C  0.57959029  0.02370541  0.53008247     0.10000
C451        C  0.49714723  0.91403535  0.50808808    -0.53500
C452        C  0.48203524  0.94580868  0.53741930     0.10600
H453        H  0.53165325  0.98561835  0.39897081     0.15100
H454        H  0.50610374  0.03502650  0.55024758     0.00900
H455        H  0.63588018  0.99783544  0.49713767     0.15400
H456        H  0.47483595  0.86847385  0.51158369     0.15200
C457        C  0.46146571  0.44438382  0.46655816     0.87000
C458        C  0.51595183  0.45123921  0.44001096    -0.53200
C459        C  0.55985740  0.47087592  0.46975516     0.09900
C460        C  0.54482744  0.48073076  0.52439069     0.20900
C461        C  0.44867379  0.40429439  0.51072275    -0.54000
C462        C  0.49261692  0.42188252  0.54098291     0.10000
C463        C  0.47699816  0.49912779  0.49264259    -0.53500
C464        C  0.52222867  0.52160838  0.52061372     0.10600
H465        H  0.51818352  0.43813571  0.40156307     0.15100
H466        H  0.58121940  0.49594653  0.54720109     0.00900
H467        H  0.41008390  0.36395050  0.51573695     0.15400
H468        H  0.44876035  0.51481324  0.49190824     0.15200
C469        C  0.62478891  0.77236266  0.66243936     0.00400
C470        C  0.66285894  0.78418095  0.69864167    -0.11500
C471        C  0.72027663  0.81338123  0.68508140     0.02600
C472        C  0.74003053  0.83236369  0.63466340     0.00300
C473        C  0.70199614  0.82275038  0.59875188    -0.11500
C474        C  0.64427138  0.79215598  0.61243530     0.02500
H475        H  0.64730327  0.76853465  0.40388130     0.15500
H476        H  0.71726064  0.83830661  0.56028044     0.15500
C477        C  0.60516863  0.78098074  0.57526723     0.37100
C478        C  0.75813580  0.82378844  0.72370646     0.37000
N479        N  0.57230505  0.77059948  0.54645341    -0.43200
N480        N  0.78828201  0.83196937  0.75472910    -0.43200
C481        C  0.55949607  0.90667504  0.43793143     0.00400
C482        C  0.54303127  0.89221070  0.38805324    -0.11500
C483        C  0.53800261  0.84383486  0.36530591     0.02600
C484        C  0.55216849  0.80988071  0.39105262     0.00300
C485        C  0.57575358  0.82768824  0.43738522    -0.11500
C486        C  0.57897164  0.87502012  0.46128538     0.02500
H487        H  0.52917372  0.91500679  0.36738275     0.15500
H488        H  0.58877509  0.80261376  0.45600985     0.15500
C489        C  0.60004655  0.88850497  0.51081377     0.37100
C490        C  0.51459947  0.82786523  0.65011609     0.37000
N491        N  0.61745023  0.90009273  0.55030429    -0.43200
N492        N  0.49532871  0.81488286  0.61147600    -0.43200
C493        C  0.54441282  0.65482681  0.62038837     0.00400
C494        C  0.51427491  0.64419408  0.57793493    -0.11500
C495        C  0.51665091  0.61010696  0.53968832     0.02600
C496        C  0.54050408  0.57649168  0.54791290     0.00300
C497        C  0.57824538  0.59428855  0.58603188    -0.11500
C498        C  0.58207233  0.63507087  0.62119674     0.02500
H499        H  0.48964875  0.66386973  0.57408921     0.15500
H500        H  0.60447229  0.57654427  0.58871273     0.15500
C501        C  0.62277207  0.65351024  0.65847208     0.37100
C502        C  0.49836135  0.61491344  0.49170793     0.37000
N503        N  0.65541235  0.66714493  0.35509013    -0.43200
N504        N  0.48324171  0.61886495  0.45355559    -0.43200
C505        C  0.82866475  0.56469027  0.34799153     0.00400
C506        C  0.88308477  0.60144228  0.36252373    -0.11500
C507        C  0.90764416  0.65980397  0.35850105     0.02600
C508        C  0.87711543  0.68286832  0.34029748     0.00300
C509        C  0.82255299  0.64590134  0.65881106    -0.11500
C510        C  0.79874704  0.58731339  0.66160610     0.02500
H511        H  0.90618034  0.58423526  0.37784477     0.15500
H512        H  0.79918624  0.66274334  0.64338040     0.15500
C513        C  0.74456569  0.55107906  0.64260450     0.37100
C514        C  0.96388949  0.69472648  0.37424662     0.37000
N515        N  0.70125198  0.52172809  0.62712679    -0.43200
N516        N  0.00907067  0.72250727  0.38659673    -0.43200
C517        C  0.71121608  0.47331415  0.41017738     0.00400
C518        C  0.65768879  0.42395073  0.41163801    -0.11500
C519        C  0.60977115  0.42177713  0.43468651     0.02600
C520        C  0.61245711  0.47111280  0.45267457     0.00300
C521        C  0.66559128  0.52012468  0.45427280    -0.11500
C522        C  0.71502194  0.52094953  0.43526390     0.02500
H523        H  0.65295472  0.38558599  0.72931368     0.15500
H524        H  0.66857970  0.55741922  0.47138502     0.15500
C525        C  0.76802528  0.56871877  0.44707394     0.37100
C526        C  0.55894961  0.36746396  0.44213114     0.37000
N527        N  0.80978782  0.60728122  0.45800994    -0.43200
N528        N  0.51865125  0.32367153  0.44771501    -0.43200
C529        C  0.88439208  0.49734761  0.63813836     0.00400
C530        C  0.92453959  0.48926618  0.65824319    -0.11500
C531        C  0.96514938  0.48506613  0.62728476     0.02600
C532        C  0.97216665  0.49613861  0.57423099     0.00300
C533        C  0.93479427  0.51003690  0.55476851    -0.11500
C534        C  0.89034548  0.50901140  0.58580088     0.02500
H535        H  0.91940053  0.47838462  0.36491110     0.15500
H536        H  0.93779938  0.51856528  0.51478113     0.15500
C537        C  0.84872910  0.51510263  0.56242402     0.37100
C538        C  0.99055846  0.45884559  0.65092816     0.37000
N539        N  0.81519021  0.51960136  0.54350337    -0.43200
N540        N  0.01027323  0.43682397  0.66970435    -0.43200
C541        C  0.21811113  0.77091547  0.65283648     0.00400
C542        C  0.22990274  0.81860506  0.34744018    -0.11500
C543        C  0.20366893  0.84862269  0.33922903     0.02600
C544        C  0.16475284  0.83103717  0.63515163     0.00300
C545        C  0.15213590  0.78241419  0.60762290    -0.11500
C546        C  0.17886067  0.75249375  0.61598091     0.02500
H547        H  0.25993479  0.83224187  0.37597477     0.15500
H548        H  0.12175399  0.76807962  0.57936455     0.15500
C549        C  0.16718840  0.70462687  0.58510708     0.37100
C550        C  0.21545547  0.89535059  0.37193653     0.37000
N551        N  0.15770175  0.66637268  0.56007059    -0.43200
N552        N  0.22491488  0.93249238  0.39849696    -0.43200
C553        C  0.08333428  0.55357067  0.41351236     0.00400
C554        C  0.11137644  0.54700250  0.36980731    -0.11500
C555        C  0.15334546  0.59353582  0.34190438     0.02600
C556        C  0.17130277  0.64796155  0.35951783     0.00300
C557        C  0.13853356  0.65514663  0.39854752    -0.11500
C558        C  0.09360142  0.60802462  0.42484579     0.02500
H559        H  0.10612328  0.50625693  0.36126455     0.15500
H560        H  0.15113029  0.69709328  0.41160583     0.15500
C561        C  0.06313761  0.61705822  0.46683169     0.37100
C562        C  0.18236094  0.58559111  0.63129182     0.37000
N563        N  0.03863538  0.62500020  0.50002595    -0.43200
N564        N  0.20721089  0.58266006  0.59556717    -0.43200
C565        C  0.34593778  0.82673677  0.63208710     0.00400
C566        C  0.33576840  0.84002326  0.58497885    -0.11500
C567        C  0.37839882  0.88565671  0.55612898     0.02600
C568        C  0.43235011  0.91775763  0.57394825     0.00300
C569        C  0.44043163  0.90887747  0.62345206    -0.11500
C570        C  0.39737669  0.86396081  0.65281138     0.02500
H571        H  0.29619407  0.81237775  0.56887154     0.15500
H572        H  0.48169089  0.93394311  0.63746765     0.15500
C573        C  0.40741167  0.85474020  0.36978526     0.37100
C574        C  0.36730678  0.89638281  0.50670718     0.37000
N575        N  0.41445283  0.84617403  0.41014581    -0.43200
N576        N  0.35825320  0.90539051  0.46734270    -0.43200
C577        C  0.31030852  0.11942518  0.34687576     0.00400
C578        C  0.34287856  0.09569387  0.33038689    -0.11500
C579        C  0.40158050  0.12667962  0.33014661     0.02600
C580        C  0.42887956  0.18213938  0.34820682     0.00300
C581        C  0.39640620  0.20561544  0.36541196    -0.11500
C582        C  0.33781855  0.17516786  0.36456284     0.02500
H583        H  0.32259532  0.05350023  0.31548169     0.15500
H584        H  0.41714235  0.24805973  0.37969025     0.15500
C585        C  0.30716478  0.20198156  0.38285218     0.37100
C586        C  0.43288379  0.10194582  0.30817967     0.37000
N587        N  0.28281920  0.22371204  0.39747485    -0.43200
N588        N  0.45771576  0.08194857  0.29028312    -0.43200
C589        C  0.51333669  0.06198062  0.44525665     0.00400
C590        C  0.46853228  0.07139622  0.45498485    -0.11500
C591        C  0.46919858  0.11686702  0.43140832     0.02600
C592        C  0.51352998  0.15098210  0.39482986     0.00300
C593        C  0.55629005  0.13864231  0.38414500    -0.11500
C594        C  0.55878668  0.09840264  0.41175408     0.02500
H595        H  0.43409678  0.04443690  0.48201348     0.15500
H596        H  0.59039594  0.16345185  0.68974513     0.15500
C597        C  0.61190183  0.10119890  0.41235970     0.37100
C598        C  0.42537887  0.12818570  0.44734675     0.37000
N599        N  0.65374149  0.10317197  0.41719494    -0.43200
N600        N  0.38934108  0.13595931  0.46055580    -0.43200
C601        C  0.50492765  0.30346615  0.63487384     0.00400
C602        C  0.52863045  0.35987032  0.64852170    -0.11500
C603        C  0.52429417  0.39866660  0.61998419     0.02600
C604        C  0.49407592  0.38142184  0.57638799     0.00300
C605        C  0.46818914  0.32394170  0.56364127    -0.11500
C606        C  0.47438524  0.28552749  0.59165619     0.02500
H607        H  0.55431056  0.37491175  0.34676203     0.15500
H608        H  0.44614977  0.30923823  0.52958981     0.15500
C609        C  0.45445579  0.23010791  0.57193719     0.37100
C610        C  0.55453830  0.45591847  0.63611091     0.37000
N611        N  0.43886167  0.18577214  0.55584892    -0.43200
N612        N  0.58140059  0.50095101  0.65089061    -0.43200
C613        C  0.17129006  0.26575976  0.63647780     0.00400
C614        C  0.22243456  0.30087792  0.27516213    -0.11500
C615        C  0.25262103  0.35883870  0.28372960     0.02600
C616        C  0.23222771  0.38167804  0.65460691     0.00300
C617        C  0.18180352  0.34692857  0.68283456    -0.11500
C618        C  0.15074055  0.28957022  0.67381827     0.02500
H619        H  0.23896423  0.28307663  0.24693660     0.15500
H620        H  0.16693136  0.36502629  0.71229680     0.15500
C621        C  0.09961851  0.25620145  0.70559086     0.37100
C622        C  0.30500441  0.39462077  0.25480603     0.37000
N623        N  0.05872120  0.22987420  0.73116592    -0.43200
N624        N  0.34732116  0.42444580  0.23245652    -0.43200
C625        C  0.33640057  0.44626917  0.38218523     0.00400
C626        C  0.39229664  0.47389995  0.36309928    -0.11500
C627        C  0.43236597  0.47099989  0.38848205     0.02600
C628        C  0.41664993  0.43339674  0.43023377     0.00300
C629        C  0.35879630  0.39962993  0.44506048    -0.11500
C630        C  0.31901009  0.40774607  0.42291066     0.02500
H631        H  0.40597431  0.50440968  0.33242215     0.15500
H632        H  0.34499461  0.37189396  0.47765179     0.15500
C633        C  0.26272963  0.38174525  0.44672712     0.37100
C634        C  0.48884533  0.51720598  0.37928557     0.37000
N635        N  0.21801816  0.36136947  0.46674996    -0.43200
N636        N  0.53400933  0.55535850  0.37625328    -0.43200
C637        C  0.13104967  0.45650691  0.54183133     0.00400
C638        C  0.18896639  0.48789769  0.52573675    -0.11500
C639        C  0.22977957  0.49317298  0.55710729     0.02600
C640        C  0.21308814  0.46790339  0.60560282     0.00300
C641        C  0.15623316  0.43188319  0.61897314    -0.11500
C642        C  0.11600278  0.42334063  0.58632321     0.02500
H643        H  0.20360860  0.50980319  0.48979615     0.15500
H644        H  0.14272907  0.41071826  0.65542787     0.15500
C645        C  0.06049650  0.37682287  0.59789748     0.37100
C646        C  0.28843174  0.52614018  0.53960415     0.37000
N647        N  0.01758898  0.33662657  0.60686693    -0.43200
N648        N  0.33546566  0.55230447  0.52564608    -0.43200
C649        C  0.87584132  0.11760778  0.34049089     0.00400
C650        C  0.85917086  0.13158973  0.63047265    -0.11500
C651        C  0.82819493  0.15876323  0.63449367     0.02600
C652        C  0.81215772  0.17129472  0.34951512     0.00300
C653        C  0.82839961  0.15645620  0.39262800    -0.11500
C654        C  0.86011211  0.13016664  0.38848102     0.02500
H655        H  0.87164753  0.12247742  0.59336613     0.15500
H656        H  0.81585020  0.16523737  0.42980886     0.15500
C657        C  0.87464425  0.11495375  0.43397976     0.37100
C658        C  0.81595787  0.17556670  0.58852555     0.37000
N659        N  0.88605290  0.10247355  0.47045199    -0.43200
N660        N  0.80658144  0.18911723  0.55146392    -0.43200
C661        C  0.84821378  0.27969519  0.41337904     0.00400
C662        C  0.84462050  0.29715903  0.46303703    -0.11500
C663        C  0.89233163  0.33940295  0.48519000     0.02600
C664        C  0.94565564  0.36340167  0.45854087     0.00300
C665        C  0.94994564  0.34196179  0.41092599    -0.11500
C666        C  0.90151893  0.30352385  0.38698781     0.02500
H667        H  0.80379707  0.27971691  0.48370355     0.15500
H668        H  0.99090801  0.35798706  0.39115482     0.15500
C669        C  0.90572055  0.29588592  0.66659422     0.37100
C670        C  0.88500361  0.35688521  0.53540436     0.37000
N671        N  0.90579636  0.28945146  0.62339239    -0.43200
N672        N  0.87758468  0.36958189  0.57584269    -0.43200
C673        C  0.61946010  0.06619669  0.56510769     0.00400
C674        C  0.64623291  0.04997745  0.59775978    -0.11500
C675        C  0.68359673  0.08774409  0.63205538     0.02600
C676        C  0.69769190  0.14480501  0.63230893     0.00300
C677        C  0.67182742  0.16075964  0.59814157    -0.11500
C678        C  0.63199692  0.12228758  0.56645366     0.02500
H679        H  0.63600472  0.00660796  0.59793949     0.15500
H680        H  0.68171236  0.20396785  0.59686566     0.15500
C681        C  0.60476262  0.14254686  0.53662339     0.37100
C682        C  0.70263912  0.06453950  0.66808095     0.37000
N683        N  0.58370435  0.16112115  0.51447201    -0.43200
N684        N  0.71641860  0.04407722  0.69666723    -0.43200
N685        N  0.78150930  0.20062437  0.02285804    -0.03000
C686        C  0.73228366  0.18849795  0.00349927    -0.00400
C687        C  0.71676009  0.22598793  0.02284271    -0.23300
C688        C  0.75568177  0.26089309  0.72150653    -0.23500
C689        C  0.79520338  0.24522591  0.72085708    -0.00500
H690        H  0.68125467  0.22886982  0.01394913     0.13300
H691        H  0.75641077  0.29579459  0.74143816     0.13300
N692        N  0.26165573  0.44056436  0.66445113    -0.03000
C693        C  0.25365023  0.47940545  0.97678791    -0.00400
C694        C  0.28821175  0.53163086  0.99648998    -0.23300
C695        C  0.31880200  0.52413342  0.69717972    -0.23500
C696        C  0.30191125  0.46759516  0.69692913    -0.00500
H697        H  0.29150916  0.57086713  0.98665681     0.13300
H698        H  0.35216757  0.55684767  0.71766615     0.13300
N699        N  0.48918407  0.21597276  0.68177019    -0.03000
C700        C  0.52442957  0.20499789  0.70555282    -0.00400
C701        C  0.57853296  0.25129347  0.70048719    -0.23300
C702        C  0.57723194  0.29073826  0.00533454    -0.23500
C703        C  0.52220129  0.26906093  0.99503160    -0.00500
H704        H  0.61568860  0.25571087  0.71518162     0.13300
H705        H  0.61279182  0.33123233  0.99333553     0.13300
N706        N  0.24976896  0.74455803  0.66033515    -0.03000
C707        C  0.30650630  0.77027034  0.98864695    -0.00400
C708        C  0.32327742  0.73439526  0.00419699    -0.23300
C709        C  0.27536362  0.68560712  0.68688913    -0.23500
C710        C  0.23062147  0.69280094  0.68012389    -0.00500
H711        H  0.36571584  0.74244189  0.00319061     0.13300
H712        H  0.27321467  0.64851759  0.70167160     0.13300
N713        N  0.80486555  0.50488650  0.02093858    -0.03000
C714        C  0.83043156  0.47614025  0.00341546    -0.00400
C715        C  0.80252656  0.42264603  0.02413670    -0.23300
C716        C  0.75890597  0.41794368  0.72224402    -0.23500
C717        C  0.75981091  0.46836588  0.71974717    -0.00500
H718        H  0.81369046  0.39076868  0.01799091     0.13300
H719        H  0.72925649  0.38079180  0.74441739     0.13300
N720        N  0.56619170  0.73752847  0.01028151    -0.03000
C721        C  0.53464728  0.75230415  0.70712875    -0.00400
C722        C  0.47971559  0.70819900  0.71191577    -0.23300
C723        C  0.47795902  0.66503454  0.01688842    -0.23500
C724        C  0.53197410  0.68396548  0.99604131    -0.00500
H725        H  0.44421280  0.70853387  0.73132922     0.13300
H726        H  0.44080690  0.62540725  0.00953217     0.13300
O727        O  0.00213992  0.04679360  0.94269790    -0.87800
C728        C  0.09789394  0.05971418  0.72492999     0.88200
Mg729      Mg  0.91517690  0.98343694  0.94282648     1.58100
O730        O  0.12278849  0.00373918  0.94532071    -0.87600
O731        O  0.08148708  0.07833132  0.89666364    -0.74900
C732        C  0.90281155  0.74458283  0.66563175     0.93200
O733        O  0.96280472  0.01736205  0.72864160    -0.74700
O734        O  0.87229522  0.76658334  0.66934273    -0.82200
Mg735      Mg  0.02701506  0.09292787  0.67887981     1.58000
C736        C  0.13304249  0.85939992  0.96186848     0.93200
O737        O  0.08981326  0.17520793  0.97088871    -0.80500
H738        H  0.14643897  0.00990990  0.87148363    -0.05800
C739        C  0.01663405  0.88900188  0.72170930     0.88100
O740        O  0.93521898  0.92667274  0.89137258    -0.75000
O741        O  0.08889638  0.06895303  0.68247980    -0.87800
O742        O  0.15737687  0.91227420  0.96765672    -0.80600
C743        C  0.24890314  0.08648189  0.67416724     0.93300
C744        C  0.14315137  0.20417477  0.96485489     0.93100
Mg745      Mg  0.01871694  0.85646609  0.94539166     1.58000
O746        O  0.95513261  0.77383680  0.65289419    -0.80500
O747        O  0.08391265  0.93202057  0.89513574    -0.74700
O748        O  0.22407122  0.11184368  0.66202553    -0.80600
O749        O  0.96153083  0.11885653  0.67724708    -0.82300
O750        O  0.82799484  0.84007716  0.95699969    -0.80600
C751        C  0.11936386  0.98331156  0.90288788     0.87600
O752        O  0.95784226  0.88057410  0.94038765    -0.87700
O753        O  0.04333939  0.90469152  0.68004986    -0.87800
O754        O  0.96486588  0.87321432  0.72743183    -0.74900
Mg755      Mg  0.14764998  0.09065565  0.95060360     1.58000
O756        O  0.22327283  0.03325278  0.67811050    -0.82300
H757        H  0.00915479  0.06259462  0.86858126    -0.06000
O758        O  0.92424425  0.94749798  0.67662904    -0.87500
H759        H  0.89924122  0.93931259  0.75024074    -0.05800
H760        H  0.95469138  0.86866070  0.86579509    -0.06000
C761        C  0.92691846  0.96671786  0.71950506     0.87500
C762        C  0.02976784  0.06286511  0.90150408     0.88100
C763        C  0.94921091  0.89049881  0.89804424     0.88200
H764        H  0.03814265  0.89003911  0.75423713    -0.06000
O765        O  0.11150162  0.02337473  0.73203815    -0.75000
Mg766      Mg  0.89947851  0.85992661  0.67234724     1.58000
H767        H  0.09276663  0.08209516  0.75690017    -0.06000
C768        C  0.91037926  0.09105775  0.66707908     0.93200
O769        O  0.82378959  0.91743636  0.94867683    -0.82200
C770        C  0.80032612  0.86471977  0.95490184     0.93200
O771        O  0.17293135  0.18160708  0.95863451    -0.82200
Mg772      Mg  0.13094907  0.96755821  0.67913140     1.58200
O773        O  0.88845429  0.04180899  0.64912189    -0.83300
O774        O  0.08144644  0.83003218  0.95402929    -0.82200
C775        C  0.08621051  0.46269008  0.85028246     0.87000
C776        C  0.05723536  0.48436976  0.88840127    -0.53200
C777        C  0.01287587  0.48681381  0.87205966     0.09900
C778        C  0.00623633  0.47261743  0.81496730     0.20900
C779        C  0.03862925  0.40772290  0.82958140    -0.54000
C780        C  0.99657923  0.41241287  0.81163370     0.10000
C781        C  0.10643962  0.50477015  0.80654278    -0.53500
C782        C  0.06569540  0.51085043  0.78785379     0.10600
H783        H  0.07337092  0.49864855  0.92495085     0.15100
H784        H  0.97280156  0.47609000  0.79851277     0.00900
H785        H  0.03798262  0.36826251  0.82949697     0.15400
H786        H  0.14965657  0.53018202  0.79161420     0.15200
C787        C  0.54633708  0.94713540  0.80224986     0.87000
C788        C  0.52813309  0.98158640  0.77307665    -0.53200
C789        C  0.51434071  0.01463988  0.80243853     0.09900
C790        C  0.51842886  0.00932528  0.85935570     0.20900
C791        C  0.59405452  0.99179329  0.83282626    -0.54000
C792        C  0.57959434  0.02370260  0.86345407     0.10000
C793        C  0.49717801  0.91402791  0.84143465    -0.53500
C794        C  0.48204685  0.94577702  0.87078077     0.10600
H795        H  0.53165068  0.98563597  0.73233792     0.15100
H796        H  0.50608492  0.03498469  0.88363426     0.00900
H797        H  0.63590451  0.99786462  0.83049285     0.15400
H798        H  0.47487862  0.86846557  0.84491368     0.15200
C799        C  0.46152241  0.44450541  0.79986216     0.87000
C800        C  0.51600228  0.45133054  0.77333306    -0.53200
C801        C  0.55989519  0.47095103  0.80308968     0.09900
C802        C  0.54485956  0.48082041  0.85771752     0.20900
C803        C  0.44869658  0.40442098  0.84403815    -0.54000
C804        C  0.49262784  0.42198686  0.87430692     0.10000
C805        C  0.47707318  0.49925996  0.82593597    -0.53500
C806        C  0.52229021  0.52171926  0.85392473     0.10600
H807        H  0.51823665  0.43821787  0.73489077     0.15100
H808        H  0.58124502  0.49602697  0.88053317     0.00900
H809        H  0.41009261  0.36409120  0.84905375     0.15400
H810        H  0.44885713  0.51496973  0.82517917     0.15200
C811        C  0.62472172  0.77235441  0.99589085     0.00400
C812        C  0.66276813  0.78417326  0.03211786    -0.11500
C813        C  0.72019152  0.81337336  0.01858362     0.02600
C814        C  0.73996965  0.83234182  0.96816638     0.00300
C815        C  0.70196136  0.82273521  0.93223346    -0.11500
C816        C  0.64423378  0.79215273  0.94589141     0.02500
H817        H  0.64735783  0.76869846  0.73709691     0.15500
H818        H  0.71724900  0.83828967  0.89376442     0.15500
C819        C  0.60516283  0.78099857  0.90869774     0.37100
C820        C  0.75803249  0.82379702  0.05723093     0.37000
N821        N  0.57233522  0.77064229  0.87985267    -0.43200
N822        N  0.78816786  0.83199651  0.08826884    -0.43200
C823        C  0.55955378  0.90671978  0.77127127     0.00400
C824        C  0.54315484  0.89230628  0.72136986    -0.11500
C825        C  0.53814513  0.84394604  0.69860421     0.02600
C826        C  0.55225867  0.80995607  0.72436155     0.00300
C827        C  0.57578300  0.82771574  0.77072449    -0.11500
C828        C  0.57900007  0.87504313  0.79463186     0.02500
H829        H  0.52933513  0.91512959  0.70069018     0.15500
H830        H  0.58875497  0.80260765  0.78936533     0.15500
C831        C  0.60004028  0.88850265  0.84417447     0.37100
C832        C  0.51451106  0.82782895  0.98347233     0.37000
N833        N  0.61741802  0.90007520  0.88367575    -0.43200
N834        N  0.49525177  0.81483954  0.94482772    -0.43200
C835        C  0.54439453  0.65485173  0.95376336     0.00400
C836        C  0.51429232  0.64425142  0.91128970    -0.11500
C837        C  0.51671774  0.61021058  0.87302242     0.02600
C838        C  0.54056096  0.57658840  0.88124475     0.00300
C839        C  0.57826873  0.59435359  0.91938979    -0.11500
C840        C  0.58206680  0.63511068  0.95457214     0.02500
H841        H  0.48966496  0.66392511  0.90744080     0.15500
H842        H  0.60449385  0.57660804  0.92207445     0.15500
C843        C  0.62276213  0.65355117  0.99185158     0.37100
C844        C  0.49850262  0.61507846  0.82502403     0.37000
N845        N  0.65547346  0.66726886  0.68820699    -0.43200
N846        N  0.48344782  0.61908246  0.78685460    -0.43200
C847        C  0.82862657  0.56471260  0.68129852     0.00400
C848        C  0.88306321  0.60145557  0.69579745    -0.11500
C849        C  0.90763758  0.65981810  0.69176592     0.02600
C850        C  0.87710286  0.68289395  0.67359598     0.00300
C851        C  0.82255581  0.64582026  0.99209341    -0.11500
C852        C  0.79877029  0.58723315  0.99485703     0.02500
H853        H  0.90616453  0.58424059  0.71109207     0.15500
H854        H  0.79918846  0.66266047  0.97666072     0.15500
C855        C  0.74461045  0.55099756  0.97581637     0.37100
C856        C  0.96391052  0.69472589  0.70745485     0.37000
N857        N  0.70131702  0.52164555  0.96030293    -0.43200
N858        N  0.00911510  0.72249210  0.71975584    -0.43200
C859        C  0.71122597  0.47332497  0.74354504     0.00400
C860        C  0.65769967  0.42395709  0.74505460    -0.11500
C861        C  0.60978926  0.42180688  0.76809097     0.02600
C862        C  0.61248546  0.47116233  0.78603163     0.00300
C863        C  0.66562336  0.52017265  0.78760654    -0.11500
C864        C  0.71504587  0.52097924  0.76860443     0.02500
H865        H  0.65293305  0.38553934  0.06244325     0.15500
H866        H  0.66862077  0.55748235  0.80469183     0.15500
C867        C  0.76805522  0.56874986  0.78039930     0.37100
C868        C  0.55896414  0.36750157  0.77556233     0.37000
N869        N  0.80982268  0.60731368  0.79132420    -0.43200
N870        N  0.51866628  0.32371175  0.78116718    -0.43200
C871        C  0.88443963  0.49726408  0.97138052     0.00400
C872        C  0.92455680  0.48912896  0.99148285    -0.11500
C873        C  0.96517148  0.48493200  0.96052472     0.02600
C874        C  0.97221461  0.49604200  0.90747659     0.00300
C875        C  0.93486353  0.50997158  0.88801757    -0.11500
C876        C  0.89042098  0.50896178  0.91904747     0.02500
H877        H  0.91941428  0.47863630  0.69819116     0.15500
H878        H  0.93788485  0.51852168  0.84803303     0.15500
C879        C  0.84884037  0.51511171  0.89566954     0.37100
C880        C  0.99056080  0.45867787  0.98415038     0.37000
N881        N  0.81533265  0.51966089  0.87674665    -0.43200
N882        N  0.01026536  0.43662884  0.00289903    -0.43200
C883        C  0.21805721  0.77084772  0.98608011     0.00400
C884        C  0.23001968  0.81869011  0.68073353    -0.11500
C885        C  0.20379380  0.84871661  0.67252491     0.02600
C886        C  0.16470849  0.83097309  0.96835933     0.00300
C887        C  0.15208358  0.78233581  0.94084945    -0.11500
C888        C  0.17880355  0.75241328  0.94922565     0.02500
H889        H  0.26009631  0.83235790  0.70923069     0.15500
H890        H  0.12169675  0.76798962  0.91259480     0.15500
C891        C  0.16711969  0.70452672  0.91837578     0.37100
C892        C  0.21568873  0.89552025  0.70516585     0.37000
N893        N  0.15762626  0.66625572  0.89336097    -0.43200
N894        N  0.22524687  0.93272782  0.73167098    -0.43200
C895        C  0.08340613  0.55353948  0.74677519     0.00400
C896        C  0.11147444  0.54700882  0.70306847    -0.11500
C897        C  0.15341743  0.59356361  0.67517247     0.02600
C898        C  0.17134203  0.64797426  0.69280951     0.00300
C899        C  0.13855058  0.65512079  0.73184241    -0.11500
C900        C  0.09363017  0.60797547  0.75812318     0.02500
H901        H  0.10625186  0.50627746  0.69450974     0.15500
H902        H  0.15112253  0.69705631  0.74491720     0.15500
C903        C  0.06313772  0.61697126  0.80010778     0.37100
C904        C  0.18221572  0.58545146  0.96467160     0.37000
N905        N  0.03861488  0.62488806  0.83330029    -0.43200
N906        N  0.20704920  0.58245924  0.92896395    -0.43200
C907        C  0.34589693  0.82664757  0.96539374     0.00400
C908        C  0.33575632  0.83995895  0.91828302    -0.11500
C909        C  0.37840234  0.88560547  0.88945519     0.02600
C910        C  0.43234544  0.91769276  0.90729384     0.00300
C911        C  0.44040169  0.90878158  0.95679728    -0.11500
C912        C  0.39732822  0.86385687  0.98613876     0.02500
H913        H  0.29618812  0.81232867  0.90216000     0.15500
H914        H  0.48165216  0.93384000  0.97082973     0.15500
C915        C  0.40749117  0.85476187  0.70313245     0.37100
C916        C  0.36732971  0.89637055  0.84004022     0.37000
N917        N  0.41454012  0.84621428  0.74349649    -0.43200
N918        N  0.35829100  0.90541161  0.80068233    -0.43200
C919        C  0.31026481  0.11943852  0.68024976     0.00400
C920        C  0.34283969  0.09571215  0.66376552    -0.11500
C921        C  0.40153775  0.12669581  0.66355129     0.02600
C922        C  0.42882276  0.18214620  0.68163394     0.00300
C923        C  0.39634180  0.20561383  0.69883916    -0.11500
C924        C  0.33775880  0.17516835  0.69796357     0.02500
H925        H  0.32256419  0.05352597  0.64884355     0.15500
H926        H  0.41706898  0.24805031  0.71313586     0.15500
C927        C  0.30709078  0.20196701  0.71625478     0.37100
C928        C  0.43285115  0.10196839  0.64159344     0.37000
N929        N  0.28273193  0.22368326  0.73087960    -0.43200
N930        N  0.45768909  0.08197416  0.62370394    -0.43200
C931        C  0.51330712  0.06196664  0.77864884     0.00400
C932        C  0.46847400  0.07133987  0.78836509    -0.11500
C933        C  0.46911755  0.11680698  0.76480411     0.02600
C934        C  0.51346816  0.15097538  0.72825904     0.00300
C935        C  0.55625015  0.13866670  0.71757439    -0.11500
C936        C  0.55875838  0.09841966  0.74516238     0.02500
H937        H  0.43402775  0.04434480  0.81536945     0.15500
H938        H  0.59035934  0.16340551  0.02293748     0.15500
C939        C  0.61188096  0.10122972  0.74575741     0.37100
C940        C  0.42523524  0.12804427  0.78071058     0.37000
N941        N  0.65372641  0.10321029  0.75058063    -0.43200
N942        N  0.38913695  0.13573648  0.79389088    -0.43200
C943        C  0.50491143  0.30349248  0.96809949     0.00400
C944        C  0.52866897  0.35989911  0.98175614    -0.11500
C945        C  0.52432787  0.39871929  0.95326341     0.02600
C946        C  0.49406259  0.38150020  0.90969511     0.00300
C947        C  0.46811538  0.32401623  0.89694577    -0.11500
C948        C  0.47430558  0.28557521  0.92492118     0.02500
H949        H  0.55418294  0.37493784  0.68019602     0.15500
H950        H  0.44603563  0.30932533  0.86291531     0.15500
C951        C  0.45429654  0.23014625  0.90519612     0.37100
C952        C  0.55461779  0.45596411  0.96940474     0.37000
N953        N  0.43863062  0.18580054  0.88910398    -0.43200
N954        N  0.58151953  0.50098637  0.98419341    -0.43200
C955        C  0.17124527  0.26571085  0.96991026     0.00400
C956        C  0.22253079  0.30093431  0.60840115    -0.11500
C957        C  0.25271494  0.35889071  0.61700185     0.02600
C958        C  0.23224861  0.38163681  0.98798235     0.00300
C959        C  0.18185943  0.34691589  0.01626844    -0.11500
C960        C  0.15076162  0.28955345  0.00727980     0.02500
H961        H  0.23909795  0.28314430  0.58020060     0.15500
H962        H  0.16702921  0.36504529  0.04573631     0.15500
C963        C  0.09966422  0.25621926  0.03909308     0.37100
C964        C  0.30514368  0.39468175  0.58814494     0.37000
N965        N  0.05878400  0.22992130  0.06469741    -0.43200
N966        N  0.34749743  0.42451732  0.56585336    -0.43200
C967        C  0.33647352  0.44633175  0.71541956     0.00400
C968        C  0.39238706  0.47402489  0.69637677    -0.11500
C969        C  0.43245444  0.47114887  0.72178483     0.02600
C970        C  0.41672643  0.43352386  0.76351958     0.00300
C971        C  0.35886650  0.39968826  0.77828817    -0.11500
C972        C  0.31907493  0.40777589  0.75611753     0.02500
H973        H  0.40606838  0.50455727  0.66571900     0.15500
H974        H  0.34505051  0.37191548  0.81085289     0.15500
C975        C  0.26277449  0.38171940  0.77989639     0.37100
C976        C  0.48892982  0.51738005  0.71263057     0.37000
N977        N  0.21804689  0.36130300  0.79989034    -0.43200
N978        N  0.53408792  0.55554553  0.70963728    -0.43200
C979        C  0.13112585  0.45644120  0.87505853     0.00400
C980        C  0.18904759  0.48786982  0.85898761    -0.11500
C981        C  0.22985800  0.49314882  0.89036440     0.02600
C982        C  0.21316067  0.46783632  0.93884396     0.00300
C983        C  0.15630340  0.43177106  0.95218190    -0.11500
C984        C  0.11607745  0.42323830  0.91952688     0.02500
H985        H  0.20369736  0.50980796  0.82306300     0.15500
H986        H  0.14279047  0.41057498  0.98862166     0.15500
C987        C  0.06056965  0.37670930  0.93107626     0.37100
C988        C  0.28851256  0.52615958  0.87287972     0.37000
N989        N  0.01765353  0.33651190  0.94001423    -0.43200
N990        N  0.33554716  0.55235924  0.85893188    -0.43200
C991        C  0.87585388  0.11761049  0.67362927     0.00400
C992        C  0.85915460  0.13154610  0.96398108    -0.11500
C993        C  0.82819470  0.15873645  0.96795924     0.02600
C994        C  0.81216703  0.17128864  0.68276305     0.00300
C995        C  0.82845853  0.15645165  0.72584257    -0.11500
C996        C  0.86017208  0.13016599  0.72164122     0.02500
H997        H  0.87163700  0.12240929  0.92688789     0.15500
H998        H  0.81594352  0.16522699  0.76304097     0.15500
C999        C  0.87475293  0.11494970  0.76710895     0.37100
C1000       C  0.81598189  0.17552492  0.92196869     0.37000
N1001       N  0.88620137  0.10246446  0.80355443    -0.43200
N1002       N  0.80662203  0.18906414  0.88489167    -0.43200
C1003       C  0.84823910  0.27965964  0.74666015     0.00400
C1004       C  0.84469029  0.29707709  0.79634369    -0.11500
C1005       C  0.89242173  0.33931146  0.81847687     0.02600
C1006       C  0.94572085  0.36334921  0.79177437     0.00300
C1007       C  0.94996799  0.34195921  0.74412093    -0.11500
C1008       C  0.90151586  0.30352701  0.72021267     0.02500
H1009       H  0.80388468  0.27960518  0.81704946     0.15500
H1010       H  0.99091172  0.35801405  0.72430294     0.15500
C1011       C  0.90578687  0.29582573  0.00006950     0.37100
C1012       C  0.88513751  0.35675043  0.86872245     0.37000
N1013       N  0.90591061  0.28933366  0.95687659    -0.43200
N1014       N  0.87774931  0.36941329  0.90918433    -0.43200
C1015       C  0.61946219  0.06619548  0.89848196     0.00400
C1016       C  0.64625738  0.04998631  0.93111725    -0.11500
C1017       C  0.68362293  0.08775357  0.96541263     0.02600
C1018       C  0.69770434  0.14481205  0.96568019     0.00300
C1019       C  0.67182234  0.16075735  0.93152090    -0.11500
C1020       C  0.63198380  0.12228067  0.89984009     0.02500
H1021       H  0.63604383  0.00662130  0.93128565     0.15500
H1022       H  0.68169661  0.20396191  0.93024687     0.15500
C1023       C  0.60472312  0.14252805  0.87003099     0.37100
C1024       C  0.70267696  0.06454530  0.00142303     0.37000
N1025       N  0.58364092  0.16108969  0.84789734    -0.43200
N1026       N  0.71646303  0.04407531  0.02999511    -0.43200
loop_ 
_geom_bond_atom_site_label_1 
_geom_bond_atom_site_label_2 
_geom_bond_distance 
_geom_bond_site_symmetry_2 
_ccdc_geom_bond_type 
N1            C2   1.373       .  A
N1          C347   1.372       .  A
N1          C652   1.451       .  S
C2            C3   1.389       .  A
C2          C334   1.514       .  S
C3          C346   1.363       .  A
C3            H6   1.077       .  S
C4            C5   1.375       .  A
C4          C687   1.363       .  A
C4            H7   1.082       .  S
C5          N685   1.372       .  A
C5          C319   1.496       .  S
N8           C12   1.348   1_556  A
N8          C693   1.351       .  A
N8          C958   1.429       .  S
C9          N350   1.351       .  A
C9           C10   1.380       .  A
C9          C298   1.477       .  S
C10         C353   1.379       .  A
C10          H13   1.082       .  S
C11          C12   1.387       .  A
C11         C694   1.379   1_554  A
C11          H14   1.082       .  S
C12         C283   1.481       .  S
N15          C16   1.368       .  A
N15         C703   1.366   1_554  A
N15         C238   1.444       .  S
C16          C17   1.388       .  A
C16         C250   1.501       .  S
C17         C702   1.362       .  A
C17          H20   1.082       .  S
C18          C19   1.377       .  A
C18         C359   1.362       .  A
C18          H21   1.081       .  S
C19         N357   1.366       .  A
C19         C259   1.491       .  S
N22          C26   1.353   1_556  A
N22         C707   1.357       .  A
N22         C883   1.432       .  S
C23         N364   1.357       .  A
C23          C24   1.382       .  A
C23         C223   1.487       .  S
C24         C367   1.373       .  A
C24          H27   1.082       .  S
C25          C26   1.385       .  A
C25         C708   1.373       .  A
C25          H28   1.082       .  S
C26         C214   1.486       .  S
N29          C30   1.368       .  A
N29         C375   1.376       .  A
N29         C505   1.444       .  S
C30          C31   1.378       .  A
C30         C187   1.499       .  S
C31         C374   1.365       .  A
C31          H34   1.083       .  S
C32          C33   1.390       .  A
C32         C715   1.365       .  A
C32          H35   1.082       .  S
C33         N713   1.376       .  A
C33         C175   1.516       .  S
N36          C40   1.353       .  A
N36         C379   1.352       .  A
N36         C127   1.428       .  S
C37         N720   1.352       .  A
C37          C38   1.381       .  A
C37         C142   1.483       .  S
C38         C723   1.379       .  A
C38          H41   1.082       .  S
C39          C40   1.384       .  A
C39         C380   1.379       .  A
C39          H42   1.081       .  S
C40         C151   1.486       .  S
O43         Mg45   2.140   1_445  S
O43        Mg393   2.168       .  S
O43          C78   1.235       .  S
C44          H83   1.081       .  S
C44          O57   1.235       .  S
C44          O81   1.269       .  A
Mg45        O416   2.163       .  S
Mg45         O85   2.240       .  S
Mg45         O56   2.307       .  S
Mg45        O431   2.306   1_565  S
O46         Mg71   2.144       .  S
O46        Mg430   2.152   1_545  S
O46          C67   1.235   1_545  S
O47          C78   1.270       .  A
O47         Mg71   2.305       .  S
C48         C166   1.491   1_556  S
C48          O50   1.274   1_556  A
C48          O62   1.271       .  A
O49          C77   1.268   1_545  A
O49         Mg51   2.293   1_655  S
O50         Mg82   2.296       .  S
Mg51         O57   2.152       .  S
Mg51        O727   2.168   1_554  S
Mg51         O65   2.283   1_455  S
Mg51        O737   2.283   1_554  S
C52         C202   1.475       .  S
C52          O90   1.268       .  A
C52          O58   1.272       .  A
O53          C60   1.273       .  A
O53        Mg393   2.283       .  S
H54          C67   1.081   1_545  S
C55          H80   1.081       .  S
C55          O69   1.236       .  S
C55          O70   1.270   1_455  A
O56          C79   1.270       .  A
O57        Mg755   2.153   1_554  S
O58        Mg430   2.285       .  S
C59         C235   1.487       .  S
C59          O72   1.271       .  A
C59          O64   1.275   1_554  A
C60         C271   1.475       .  S
C60          O87   1.270       .  A
Mg61         O68   2.132   1_455  S
Mg61        O411   2.153       .  S
Mg61         O63   2.307       .  S
Mg61         O90   2.244       .  S
Mg61        O404   2.286   1_455  S
O62        Mg745   2.286   1_655  S
O63          C67   1.270       .  A
O64        Mg755   2.316       .  S
O65          C84   1.272       .  A
O66          C86   1.271       .  A
O66        Mg424   2.278       .  S
O68        Mg424   2.152       .  S
O68          C79   1.235       .  S
O69         Mg88   2.148       .  S
O69        Mg745   2.153   1_554  S
O70         Mg82   2.302       .  S
Mg71        O399   2.153       .  S
Mg71         O87   2.253       .  S
Mg71        O406   2.316       .  S
O72         Mg88   2.260   1_545  S
H73          C78   1.081       .  S
O74         Mg82   2.160       .  S
O74        Mg729   2.163   1_554  S
O74          C77   1.235       .  S
H75          C77   1.081       .  S
H76          C79   1.081       .  S
O81         Mg88   2.299   1_545  S
Mg82        O752   2.152   1_554  S
Mg82        O750   2.278   1_554  S
C84         C307   1.481       .  S
C84          O89   1.273   1_554  A
O85          C86   1.268       .  A
C86         C130   1.458       .  S
Mg88        O730   2.152   1_564  S
Mg88        O742   2.285   1_554  S
O89        Mg729   2.306   1_545  S
C91          C92   1.540       .  S
C91          C97   1.524       .  S
C91          C95   1.542       .  S
C91         C295   1.546       .  S
C92          H99   1.080       .  S
C92          C93   1.376       .  D
C93          C94   1.557       .  S
C93         C190   1.532   1_455  S
C94          C98   1.559       .  S
C94          C96   1.551   1_455  S
C94         H100   1.108   1_455  S
C95         H101   1.086       .  S
C95          C96   1.366   1_455  D
C96         C322   1.495       .  S
C97         H102   1.081       .  S
C97          C98   1.362       .  D
C98         C211   1.490       .  S
C103        C104   1.540       .  S
C103        C109   1.527       .  S
C103        C107   1.544       .  S
C103        C139   1.548       .  S
C104        H111   1.082       .  S
C104        C105   1.368   1_565  D
C105        C106   1.541       .  S
C105        C247   1.487       .  S
C106        C110   1.540   1_545  S
C106        C108   1.550       .  S
C106        H112   1.110       .  S
C107        H113   1.085       .  S
C107        C108   1.372   1_565  D
C108        C331   1.499       .  S
C109        H114   1.087       .  S
C109        C110   1.361       .  D
C110        C226   1.477       .  S
C115        C116   1.541       .  S
C115        C121   1.513       .  S
C115        C119   1.528       .  S
C115        C286   1.538       .  S
C116        H123   1.082       .  S
C116        C117   1.365       .  D
C117        C118   1.534       .  S
C117        C178   1.495       .  S
C118        C122   1.563       .  S
C118        C120   1.572       .  S
C118        H124   1.103       .  S
C119        H125   1.084       .  S
C119        C120   1.380       .  D
C120        C262   1.502       .  S
C121        H126   1.079       .  S
C121        C122   1.358       .  D
C122        C154   1.518       .  S
C127        C128   1.394       .  A
C127        C132   1.406       .  A
C128        C129   1.391       .  A
C128        H475   1.084       .  S
C129        C130   1.412       .  A
C129        C136   1.446       .  S
C130        C131   1.400       .  A
C131        C132   1.399       .  A
C131        H134   1.084       .  S
C132        C135   1.437       .  S
H133        C812   1.084       .  S
C135        N137   1.155       .  T
C136        N138   1.157       .  T
C139        C140   1.415       .  A
C139        C144   1.423       .  A
C140        C141   1.401       .  A
C140        H145   1.074       .  S
C141        C142   1.404       .  A
C141        C832   1.445   1_554  S
C142        C143   1.397       .  A
C143        C144   1.406       .  A
C143        H146   1.080       .  S
C144        C147   1.444       .  S
C147        N149   1.158       .  T
C148        C483   1.445       .  S
C148        N150   1.157       .  T
C151        C152   1.393       .  A
C151        C156   1.413       .  A
C152        C153   1.390       .  A
C152        H157   1.086       .  S
C153        C154   1.425       .  A
C153        C160   1.443       .  S
C154        C155   1.408       .  A
C155        C156   1.413       .  A
C155        H158   1.078       .  S
C156        C159   1.443       .  S
C159        N503   1.157       .  T
C160        N162   1.156       .  T
N161        C843   1.157   1_554  T
C163        N713   1.444       .  S
C163        C164   1.403       .  A
C163        C852   1.408   1_554  A
C164        C165   1.400       .  A
C164        H169   1.084       .  S
C165        C166   1.417       .  A
C165        C172   1.446       .  S
C166        C851   1.409   1_554  A
C167        C168   1.406       .  A
C167        C508   1.409       .  A
C167        H170   1.084       .  S
C168        C505   1.408       .  A
C168        C171   1.441       .  S
C171        N173   1.157       .  T
C172        N174   1.158   1_655  T
C175        C176   1.412       .  A
C175        C180   1.422       .  A
C176        C177   1.396       .  A
C176        H865   1.080       .  S
C177        C178   1.404       .  A
C177        C184   1.446       .  S
C178        C179   1.407       .  A
C179        C180   1.417       .  A
C179        H182   1.084       .  S
C180        C183   1.440       .  S
H181        C518   1.080       .  S
C183        N185   1.157       .  T
C184        N186   1.157       .  T
C187        C188   1.395       .  A
C187        C192   1.413       .  A
C188        C189   1.396       .  A
C188        H535   1.087       .  S
C189        C190   1.426       .  A
C189        C196   1.432       .  S
C190        C191   1.417       .  A
C191        C192   1.419       .  A
C191        H194   1.081       .  S
C192        C195   1.442       .  S
H193        C872   1.087   1_554  S
C195        N197   1.157       .  T
C196        N198   1.153   1_655  T
C199        N364   1.432       .  S
C199        C204   1.408       .  A
C199        C542   1.396       .  A
C200        C201   1.392       .  A
C200        C883   1.396   1_554  A
C200        H205   1.085       .  S
C201        C886   1.416   1_554  A
C201        C208   1.445       .  S
C202        C203   1.406       .  A
C202        C543   1.416       .  A
C203        C204   1.402       .  A
C203        H206   1.085       .  S
C204        C207   1.442       .  S
C207        N209   1.157       .  T
C208        N210   1.157       .  T
C211        C212   1.407       .  A
C211        C216   1.414       .  A
C212        C213   1.394       .  A
C212        H217   1.083       .  S
C213        C214   1.404       .  A
C213        C904   1.440   1_554  S
C214        C215   1.404       .  A
C215        C216   1.411       .  A
C215        H218   1.084       .  S
C216        C219   1.441       .  S
C219        N221   1.157       .  T
C220        C555   1.440       .  S
C220        N222   1.155       .  T
C223        C224   1.403       .  A
C223        C228   1.413       .  A
C224        C225   1.400       .  A
C224        H229   1.084       .  S
C225        C226   1.411       .  A
C225        C232   1.444       .  S
C226        C227   1.400       .  A
C227        C228   1.402       .  A
C227        H230   1.084       .  S
C228        C573   1.443       .  S
C231        C912   1.443   1_554  S
C231        N233   1.157       .  T
C232        N234   1.157       .  T
C235        C236   1.408   1_554  A
C235        C240   1.414       .  A
C236        C237   1.402       .  A
C236        H241   1.085       .  S
C237        C238   1.411   1_556  A
C237        C244   1.443       .  S
C238        C239   1.405       .  A
C239        C240   1.402       .  A
C239        H242   1.084       .  S
C240        C243   1.444       .  S
C243        N245   1.157       .  T
C244        N246   1.157       .  T
C247        C248   1.404       .  A
C247        C252   1.403       .  A
C248        C249   1.415       .  A
C248        H253   1.084       .  S
C249        C250   1.421       .  A
C249        C256   1.439       .  S
C250        C251   1.406       .  A
C251        C252   1.386       .  A
C251        H938   1.080       .  S
C252        C255   1.442       .  S
H254        C593   1.080       .  S
C255        N257   1.156       .  T
C256        N258   1.157       .  T
C259        C260   1.400       .  A
C259        C264   1.406       .  A
C260        C261   1.393       .  A
C260        H607   1.077       .  S
C261        C262   1.410       .  A
C261        C268   1.436       .  S
C262        C263   1.416       .  A
C263        C264   1.404       .  A
C263        H266   1.082       .  S
C264        C267   1.439       .  S
H265        C944   1.077   1_554  S
C267        N269   1.156       .  T
C268        N270   1.155       .  T
C271        C276   1.417       .  A
C271        C614   1.408       .  A
C272        C273   1.402       .  A
C272        C955   1.408       .  A
C272        H277   1.084       .  S
C273        C958   1.403       .  A
C273        C280   1.441       .  S
C274        N350   1.429       .  S
C274        C275   1.394       .  A
C274        C615   1.403       .  A
C275        C276   1.391       .  A
C275        H278   1.084       .  S
C276        C279   1.446       .  S
C279        N281   1.157       .  T
C280        N282   1.157       .  T
C283        C284   1.391       .  A
C283        C288   1.412       .  A
C284        C285   1.386       .  A
C284        H289   1.087   1_554  S
C285        C286   1.423       .  A
C285        C292   1.435       .  S
C286        C287   1.413       .  A
C287        C288   1.412       .  A
C287        H290   1.081       .  S
C288        C291   1.443       .  S
C291        N293   1.157       .  T
C292        N294   1.153       .  T
C295        C296   1.417       .  A
C295        C300   1.415       .  A
C296        C297   1.408       .  A
C296        H301   1.077       .  S
C297        C298   1.408       .  A
C297        C304   1.444       .  S
C298        C299   1.391       .  A
C299        C300   1.391       .  A
C299        H302   1.081       .  S
C300        C303   1.430       .  S
C303        N305   1.152       .  T
C304        N306   1.157       .  T
C307        C312   1.407       .  A
C307        C992   1.405   1_554  A
C308        C309   1.405       .  A
C308        C649   1.405       .  A
C308        H313   1.085       .  S
C309        C652   1.416       .  A
C309        C316   1.444       .  S
C310        N685   1.451       .  S
C310        C311   1.409       .  A
C310        C993   1.416   1_554  A
C311        C312   1.403       .  A
C311        H314   1.084       .  S
C312        C315   1.443       .  S
C315        N317   1.157       .  T
C316        N318   1.158       .  T
C319        C320   1.406       .  A
C319        C324   1.408       .  A
C320        C321   1.404       .  A
C320        H325   1.085       .  S
C321        C322   1.411       .  A
C321        C328   1.441       .  S
C322        C323   1.405       .  A
C323        C324   1.408       .  A
C323        H326   1.082       .  S
C324       C1011   1.438       .  S
C327        C666   1.438       .  S
C327        N329   1.156       .  T
C328        N330   1.157       .  T
C331        C332   1.407       .  A
C331        C336   1.409       .  A
C332        C333   1.410       .  A
C332        H337   1.085       .  S
C333        C334   1.422       .  A
C333        C340   1.441       .  S
C334        C335   1.412       .  A
C335        C336   1.400       .  A
C335        H338   1.084       .  S
C336        C339   1.441       .  S
C339        N341   1.157       .  T
C340        N342   1.158       .  T
N343        C689   1.372       .  A
N343        C344   1.373       .  A
N343        C994   1.451       .  S
C344        C345   1.389       .  A
C344        C676   1.514       .  S
C345        C688   1.364       .  A
C345        H348   1.077       .  S
C346        C347   1.375       .  A
C346        H349   1.082       .  S
C347        C661   1.496       .  S
N350        C354   1.348       .  A
C351        N692   1.351       .  A
C351        C352   1.380       .  A
C351        C640   1.477       .  S
C352        C695   1.379       .  A
C352        H355   1.082       .  S
C353        C354   1.387       .  A
C353        H356   1.082       .  S
C354        C625   1.480       .  S
N357        C358   1.368       .  A
N357        C580   1.444       .  S
C358        C359   1.388       .  A
C358        C592   1.501       .  S
C359        H362   1.082       .  S
C360        C701   1.362       .  A
C360        C361   1.377       .  A
C360        H363   1.081       .  S
C361        N699   1.366       .  A
C361        C601   1.491       .  S
N364        C368   1.353       .  A
C365        N706   1.357       .  A
C365        C366   1.382       .  A
C365        C565   1.487       .  S
C366        C709   1.373       .  A
C366        H369   1.082       .  S
C367        C368   1.385       .  A
C367        H370   1.082       .  S
C368        C556   1.486       .  S
N371        C717   1.376       .  A
N371        C372   1.368       .  A
N371        C847   1.444       .  S
C372        C373   1.378       .  A
C372        C529   1.498       .  S
C373        C716   1.365       .  A
C373        H376   1.083       .  S
C374        C375   1.390       .  A
C374        H377   1.082       .  S
C375        C517   1.516       .  S
N378        C382   1.353       .  A
N378        C721   1.352       .  A
N378        C469   1.428       .  S
C379        C380   1.381       .  A
C379        C484   1.483       .  S
C380        H383   1.082       .  S
C381        C722   1.379       .  A
C381        C382   1.384       .  A
C381        H384   1.081       .  S
C382        C493   1.486       .  S
O385       Mg387   2.140   1_445  S
O385       Mg735   2.168       .  S
O385        C420   1.235       .  S
C386        H425   1.081       .  S
C386        O399   1.235       .  S
C386        O423   1.269       .  A
Mg387       O758   2.163       .  S
Mg387       O773   2.306   1_565  S
Mg387       O427   2.240       .  S
Mg387       O398   2.307       .  S
O388       Mg772   2.152   1_545  S
O388       Mg413   2.144       .  S
O388        C409   1.235   1_545  S
O389        C420   1.270       .  A
O389       Mg413   2.305       .  S
C390        C508   1.491       .  S
C390        O392   1.274       .  A
C390        O404   1.271       .  A
O391        C419   1.268   1_545  A
O391       Mg393   2.293   1_655  S
O392       Mg424   2.296       .  S
Mg393       O399   2.152       .  S
Mg393       O407   2.283   1_455  S
C394        C544   1.475       .  S
C394        O432   1.268       .  A
C394        O400   1.272       .  A
O395        C402   1.273       .  A
O395       Mg735   2.284       .  S
H396        C409   1.081   1_545  S
C397        H422   1.081       .  S
C397        O411   1.236       .  S
C397        O412   1.270   1_455  A
O398        C421   1.270       .  A
O400       Mg772   2.285       .  S
C401        C577   1.488       .  S
C401        O414   1.271       .  A
C401        O406   1.275       .  A
C402        C613   1.475       .  S
C402        O429   1.270       .  A
Mg403       O410   2.132   1_455  S
Mg403       O753   2.153       .  S
Mg403       O746   2.286   1_455  S
Mg403       O405   2.307       .  S
Mg403       O432   2.244       .  S
O405        C409   1.270       .  A
O407        C426   1.272       .  A
O408        C428   1.271       .  A
O408       Mg766   2.278       .  S
O410       Mg766   2.152       .  S
O410        C421   1.235       .  S
O411       Mg430   2.148       .  S
O412       Mg424   2.302       .  S
Mg413       O741   2.153       .  S
Mg413       O748   2.316       .  S
Mg413       O429   2.253       .  S
O414       Mg430   2.260   1_545  S
H415        C420   1.081       .  S
O416       Mg424   2.160       .  S
O416        C419   1.235       .  S
H417        C419   1.081       .  S
H418        C421   1.081       .  S
O423       Mg430   2.299   1_545  S
C426        C649   1.481       .  S
C426        O431   1.273       .  A
O427        C428   1.268       .  A
C428        C472   1.458       .  S
C433        C434   1.540       .  S
C433        C439   1.524       .  S
C433        C437   1.542       .  S
C433        C637   1.546       .  S
C434        H441   1.080       .  S
C434        C435   1.376       .  D
C435        C436   1.557       .  S
C435        C532   1.532   1_455  S
C436        C440   1.559       .  S
C436        C438   1.551   1_455  S
C436        H442   1.108   1_455  S
C437        H443   1.086       .  S
C437        C438   1.366   1_455  D
C438        C664   1.495       .  S
C439        H444   1.081       .  S
C439        C440   1.362       .  D
C440        C553   1.490       .  S
C445        C446   1.540       .  S
C445        C451   1.527       .  S
C445        C449   1.544       .  S
C445        C481   1.548       .  S
C446        H453   1.082       .  S
C446        C447   1.368   1_565  D
C447        C448   1.541       .  S
C447        C589   1.487       .  S
C448        C452   1.540   1_545  S
C448        C450   1.550       .  S
C448        H454   1.110       .  S
C449        H455   1.085       .  S
C449        C450   1.372   1_565  D
C450        C673   1.499       .  S
C451        H456   1.087       .  S
C451        C452   1.361       .  D
C452        C568   1.477       .  S
C457        C458   1.541       .  S
C457        C463   1.513       .  S
C457        C461   1.528       .  S
C457        C628   1.538       .  S
C458        H465   1.082       .  S
C458        C459   1.364       .  D
C459        C460   1.534       .  S
C459        C520   1.495       .  S
C460        C464   1.563       .  S
C460        C462   1.572       .  S
C460        H466   1.103       .  S
C461        H467   1.084       .  S
C461        C462   1.380       .  D
C462        C604   1.502       .  S
C463        H468   1.079       .  S
C463        C464   1.358       .  D
C464        C496   1.518       .  S
C469        C470   1.394       .  A
C469        C474   1.406       .  A
C470        C471   1.391       .  A
C470        H817   1.084       .  S
C471        C472   1.412       .  A
C471        C478   1.446       .  S
C472        C473   1.400       .  A
C473        C474   1.399       .  A
C473        H476   1.084       .  S
C474        C477   1.437       .  S
C477        N479   1.155       .  T
C478        N480   1.157       .  T
C481        C482   1.415       .  A
C481        C486   1.423       .  A
C482        C483   1.401       .  A
C482        H487   1.074       .  S
C483        C484   1.404       .  A
C484        C485   1.397       .  A
C485        C486   1.406       .  A
C485        H488   1.080       .  S
C486        C489   1.444       .  S
C489        N491   1.158       .  T
C490        C825   1.445       .  S
C490        N492   1.157       .  T
C493        C494   1.393       .  A
C493        C498   1.413       .  A
C494        C495   1.390       .  A
C494        H499   1.086       .  S
C495        C496   1.425       .  A
C495        C502   1.443       .  S
C496        C497   1.408       .  A
C497        C498   1.413       .  A
C497        H500   1.078       .  S
C498        C501   1.443       .  S
C501        N845   1.157       .  T
C502        N504   1.156       .  T
C505        C506   1.403       .  A
C506        C507   1.400       .  A
C506        H511   1.084       .  S
C507        C508   1.417       .  A
C507        C514   1.446       .  S
C509        C850   1.409       .  A
C509        C510   1.406       .  A
C509        H512   1.084       .  S
C510        C847   1.408       .  A
C510        C513   1.441       .  S
C513        N515   1.157       .  T
C514        N516   1.158   1_655  T
C517        C518   1.412       .  A
C517        C522   1.422       .  A
C518        C519   1.396       .  A
C519        C520   1.404       .  A
C519        C526   1.446       .  S
C520        C521   1.407       .  A
C521        C522   1.417       .  A
C521        H524   1.084       .  S
C522        C525   1.440       .  S
H523        C860   1.080       .  S
C525        N527   1.157       .  T
C526        N528   1.157       .  T
C529        C530   1.395       .  A
C529        C534   1.413       .  A
C530        C531   1.396       .  A
C530        H877   1.087       .  S
C531        C532   1.426       .  A
C531        C538   1.432       .  S
C532        C533   1.417       .  A
C533        C534   1.419       .  A
C533        H536   1.081       .  S
C534        C537   1.442       .  S
C537        N539   1.157       .  T
C538        N540   1.153   1_655  T
C541        N706   1.432       .  S
C541        C884   1.396       .  A
C541        C546   1.408       .  A
C542        C543   1.392       .  A
C542        H547   1.085       .  S
C543        C550   1.445       .  S
C544        C885   1.416       .  A
C544        C545   1.406       .  A
C545        C546   1.402       .  A
C545        H548   1.085       .  S
C546        C549   1.442       .  S
C549        N551   1.157       .  T
C550        N552   1.157       .  T
C553        C554   1.407       .  A
C553        C558   1.414       .  A
C554        C555   1.394       .  A
C554        H559   1.083       .  S
C555        C556   1.404       .  A
C556        C557   1.404       .  A
C557        C558   1.411       .  A
C557        H560   1.084       .  S
C558        C561   1.441       .  S
C561        N563   1.157       .  T
C562        C897   1.440       .  S
C562        N564   1.155       .  T
C565        C566   1.403       .  A
C565        C570   1.413       .  A
C566        C567   1.400       .  A
C566        H571   1.084       .  S
C567        C568   1.411       .  A
C567        C574   1.444       .  S
C568        C569   1.400       .  A
C569        C570   1.402       .  A
C569        H572   1.084       .  S
C570        C915   1.443       .  S
C573        N575   1.157       .  T
C574        N576   1.157       .  T
C577        C578   1.408       .  A
C577        C582   1.414       .  A
C578        C579   1.402       .  A
C578        H583   1.085       .  S
C579        C580   1.411       .  A
C579        C586   1.443       .  S
C580        C581   1.405       .  A
C581        C582   1.402       .  A
C581        H584   1.084       .  S
C582        C585   1.444       .  S
C585        N587   1.157       .  T
C586        N588   1.157       .  T
C589        C590   1.404       .  A
C589        C594   1.403       .  A
C590        C591   1.415       .  A
C590        H595   1.084       .  S
C591        C592   1.421       .  A
C591        C598   1.439       .  S
C592        C593   1.406       .  A
C593        C594   1.386       .  A
C594        C597   1.443       .  S
H596        C935   1.080       .  S
C597        N599   1.156       .  T
C598        N600   1.157       .  T
C601        C602   1.400       .  A
C601        C606   1.406       .  A
C602        C603   1.393       .  A
C602        H949   1.077       .  S
C603        C604   1.410       .  A
C603        C610   1.436       .  S
C604        C605   1.416       .  A
C605        C606   1.404       .  A
C605        H608   1.082       .  S
C606        C609   1.439       .  S
C609        N611   1.156       .  T
C610        N612   1.155       .  T
C613        C956   1.408       .  A
C613        C618   1.417       .  A
C614        C615   1.402       .  A
C614        H619   1.084       .  S
C615        C622   1.441       .  S
C616        N692   1.430       .  S
C616        C957   1.403       .  A
C616        C617   1.394       .  A
C617        C618   1.391       .  A
C617        H620   1.084       .  S
C618        C621   1.446       .  S
C621        N623   1.157       .  T
C622        N624   1.157       .  T
C625        C626   1.391       .  A
C625        C630   1.412       .  A
C626        C627   1.386       .  A
C626        H631   1.087       .  S
C627        C628   1.423       .  A
C627        C634   1.435       .  S
C628        C629   1.413       .  A
C629        C630   1.412       .  A
C629        H632   1.081       .  S
C630        C633   1.443       .  S
C633        N635   1.157       .  T
C634        N636   1.153       .  T
C637        C638   1.417       .  A
C637        C642   1.415       .  A
C638        C639   1.408       .  A
C638        H643   1.077       .  S
C639        C640   1.408       .  A
C639        C646   1.444       .  S
C640        C641   1.391       .  A
C641        C642   1.391       .  A
C641        H644   1.081       .  S
C642        C645   1.430       .  S
C645        N647   1.152       .  T
C646        N648   1.157       .  T
C649        C654   1.407       .  A
C650        C991   1.405       .  A
C650        C651   1.405       .  A
C650        H655   1.085       .  S
C651        C994   1.416       .  A
C651        C658   1.444       .  S
C652        C653   1.409       .  A
C653        C654   1.403       .  A
C653        H656   1.084       .  S
C654        C657   1.443       .  S
C657        N659   1.157       .  T
C658        N660   1.158       .  T
C661        C662   1.406       .  A
C661        C666   1.408       .  A
C662        C663   1.404       .  A
C662        H667   1.085       .  S
C663        C664   1.411       .  A
C663        C670   1.441       .  S
C664        C665   1.405       .  A
C665        C666   1.408       .  A
C665        H668   1.082       .  S
C669       C1008   1.438       .  S
C669        N671   1.156       .  T
C670        N672   1.157       .  T
C673        C674   1.407       .  A
C673        C678   1.409       .  A
C674        C675   1.410       .  A
C674        H679   1.085       .  S
C675        C676   1.422       .  A
C675        C682   1.441       .  S
C676        C677   1.412       .  A
C677        C678   1.400       .  A
C677        H680   1.084       .  S
C678        C681   1.441       .  S
C681        N683   1.157       .  T
C682        N684   1.158       .  T
N685        C686   1.373       .  A
C686        C687   1.389       .  A
C686       C1018   1.514   1_554  S
C687        H690   1.077       .  S
C688        C689   1.375       .  A
C688        H691   1.082       .  S
C689       C1003   1.496       .  S
N692        C696   1.348       .  A
C693        C694   1.380       .  A
C693        C982   1.477       .  S
C694        H697   1.082       .  S
C695        C696   1.387       .  A
C695        H698   1.082       .  S
C696        C967   1.480       .  S
N699        C700   1.368       .  A
N699        C922   1.444       .  S
C700        C701   1.388       .  A
C700        C934   1.501       .  S
C701        H704   1.082       .  S
C702        C703   1.377   1_554  A
C702        H705   1.081   1_554  S
C703        C943   1.491       .  S
N706        C710   1.353       .  A
C707        C708   1.382   1_556  A
C707        C907   1.487       .  S
C708        H711   1.082       .  S
C709        C710   1.385       .  A
C709        H712   1.082       .  S
C710        C898   1.486       .  S
N713        C714   1.368       .  A
C714        C715   1.378       .  A
C714        C871   1.498   1_554  S
C715        H718   1.083       .  S
C716        C717   1.390       .  A
C716        H719   1.082       .  S
C717        C859   1.516       .  S
N720        C724   1.353   1_554  A
N720        C811   1.428   1_554  S
C721        C722   1.381       .  A
C721        C826   1.483       .  S
C722        H725   1.082       .  S
C723        C724   1.384   1_554  A
C723        H726   1.081       .  S
C724        C835   1.486       .  S
O727       Mg729   2.140   1_445  S
O727        C762   1.235       .  S
C728        H767   1.081       .  S
C728        O741   1.235       .  S
C728        O765   1.269       .  A
Mg729       O769   2.240       .  S
Mg729       O740   2.307       .  S
O730       Mg755   2.144       .  S
O730        C751   1.235   1_545  S
O731        C762   1.270       .  A
O731       Mg755   2.305       .  S
C732        C850   1.491       .  S
C732        O734   1.274       .  A
C732        O746   1.271       .  A
O733        C761   1.268   1_545  A
O733       Mg735   2.293   1_655  S
O734       Mg766   2.296       .  S
Mg735       O741   2.152       .  S
Mg735       O749   2.283   1_455  S
C736        C886   1.476       .  S
C736        O774   1.268       .  A
C736        O742   1.272       .  A
O737        C744   1.273       .  A
H738        C751   1.081   1_545  S
C739        H764   1.081       .  S
C739        O753   1.236       .  S
C739        O754   1.270   1_455  A
O740        C763   1.270       .  A
C743        C919   1.487       .  S
C743        O756   1.271       .  A
C743        O748   1.275       .  A
C744        C955   1.475       .  S
C744        O771   1.270       .  A
Mg745       O752   2.133   1_455  S
Mg745       O747   2.307       .  S
Mg745       O774   2.244       .  S
O747        C751   1.271       .  A
O749        C768   1.272       .  A
O750        C770   1.271       .  A
O752        C763   1.235       .  S
O753       Mg772   2.148       .  S
O754       Mg766   2.302       .  S
Mg755       O771   2.253       .  S
O756       Mg772   2.260   1_545  S
H757        C762   1.081       .  S
O758       Mg766   2.160       .  S
O758        C761   1.235       .  S
H759        C761   1.081       .  S
H760        C763   1.081       .  S
O765       Mg772   2.299   1_545  S
C768        C991   1.481       .  S
C768        O773   1.273       .  A
O769        C770   1.268       .  A
C770        C814   1.458       .  S
C775        C776   1.540       .  S
C775        C781   1.524       .  S
C775        C779   1.542       .  S
C775        C979   1.546       .  S
C776        H783   1.080       .  S
C776        C777   1.376       .  D
C777        C778   1.557       .  S
C777        C874   1.532   1_455  S
C778        C782   1.559       .  S
C778        C780   1.551   1_455  S
C778        H784   1.108   1_455  S
C779        H785   1.086       .  S
C779        C780   1.366   1_455  D
C780       C1006   1.495       .  S
C781        H786   1.081       .  S
C781        C782   1.362       .  D
C782        C895   1.490       .  S
C787        C788   1.540       .  S
C787        C793   1.527       .  S
C787        C791   1.544       .  S
C787        C823   1.548       .  S
C788        H795   1.082       .  S
C788        C789   1.368   1_565  D
C789        C790   1.541       .  S
C789        C931   1.487       .  S
C790        C794   1.540   1_545  S
C790        C792   1.550       .  S
C790        H796   1.110       .  S
C791        H797   1.085       .  S
C791        C792   1.372   1_565  D
C792       C1015   1.499       .  S
C793        H798   1.087       .  S
C793        C794   1.361       .  D
C794        C910   1.477       .  S
C799        C800   1.541       .  S
C799        C805   1.513       .  S
C799        C803   1.528       .  S
C799        C970   1.538       .  S
C800        H807   1.082       .  S
C800        C801   1.364       .  D
C801        C802   1.534       .  S
C801        C862   1.495       .  S
C802        C806   1.563       .  S
C802        C804   1.572       .  S
C802        H808   1.103       .  S
C803        H809   1.084       .  S
C803        C804   1.380       .  D
C804        C946   1.502       .  S
C805        H810   1.079       .  S
C805        C806   1.358       .  D
C806        C838   1.518       .  S
C811        C812   1.394   1_556  A
C811        C816   1.406       .  A
C812        C813   1.391       .  A
C813        C814   1.412   1_554  A
C813        C820   1.446       .  S
C814        C815   1.400       .  A
C815        C816   1.399       .  A
C815        H818   1.084       .  S
C816        C819   1.437       .  S
C819        N821   1.155       .  T
C820        N822   1.157       .  T
C823        C824   1.415       .  A
C823        C828   1.423       .  A
C824        C825   1.401       .  A
C824        H829   1.074       .  S
C825        C826   1.404       .  A
C826        C827   1.397       .  A
C827        C828   1.406       .  A
C827        H830   1.080       .  S
C828        C831   1.444       .  S
C831        N833   1.158       .  T
C832        N834   1.157       .  T
C835        C836   1.393       .  A
C835        C840   1.413       .  A
C836        C837   1.390       .  A
C836        H841   1.086       .  S
C837        C838   1.425       .  A
C837        C844   1.443       .  S
C838        C839   1.408       .  A
C839        C840   1.413       .  A
C839        H842   1.078       .  S
C840        C843   1.443       .  S
C844        N846   1.156       .  T
C847        C848   1.403       .  A
C848        C849   1.400       .  A
C848        H853   1.084       .  S
C849        C850   1.417       .  A
C849        C856   1.446       .  S
C851        C852   1.406       .  A
C851        H854   1.084       .  S
C852        C855   1.441       .  S
C855        N857   1.157       .  T
C856        N858   1.158   1_655  T
C859        C860   1.412       .  A
C859        C864   1.422       .  A
C860        C861   1.396       .  A
C861        C862   1.404       .  A
C861        C868   1.446       .  S
C862        C863   1.407       .  A
C863        C864   1.417       .  A
C863        H866   1.084       .  S
C864        C867   1.440       .  S
C867        N869   1.157       .  T
C868        N870   1.157       .  T
C871        C872   1.395       .  A
C871        C876   1.413       .  A
C872        C873   1.396       .  A
C873        C874   1.426       .  A
C873        C880   1.432       .  S
C874        C875   1.417       .  A
C875        C876   1.419       .  A
C875        H878   1.081       .  S
C876        C879   1.442       .  S
C879        N881   1.157       .  T
C880        N882   1.153   1_656  T
C883        C888   1.408       .  A
C884        C885   1.392       .  A
C884        H889   1.085       .  S
C885        C892   1.445       .  S
C886        C887   1.406       .  A
C887        C888   1.402       .  A
C887        H890   1.085       .  S
C888        C891   1.442       .  S
C891        N893   1.157       .  T
C892        N894   1.157       .  T
C895        C896   1.407       .  A
C895        C900   1.414       .  A
C896        C897   1.394       .  A
C896        H901   1.083       .  S
C897        C898   1.404       .  A
C898        C899   1.404       .  A
C899        C900   1.411       .  A
C899        H902   1.084       .  S
C900        C903   1.441       .  S
C903        N905   1.157       .  T
C904        N906   1.155       .  T
C907        C908   1.403       .  A
C907        C912   1.413       .  A
C908        C909   1.400       .  A
C908        H913   1.084       .  S
C909        C910   1.411       .  A
C909        C916   1.444       .  S
C910        C911   1.400       .  A
C911        C912   1.402       .  A
C911        H914   1.084       .  S
C915        N917   1.157       .  T
C916        N918   1.157       .  T
C919        C920   1.408       .  A
C919        C924   1.414       .  A
C920        C921   1.402       .  A
C920        H925   1.085       .  S
C921        C922   1.411       .  A
C921        C928   1.443       .  S
C922        C923   1.405       .  A
C923        C924   1.402       .  A
C923        H926   1.084       .  S
C924        C927   1.444       .  S
C927        N929   1.157       .  T
C928        N930   1.157       .  T
C931        C932   1.404       .  A
C931        C936   1.403       .  A
C932        C933   1.415       .  A
C932        H937   1.084       .  S
C933        C934   1.421       .  A
C933        C940   1.439       .  S
C934        C935   1.406       .  A
C935        C936   1.386       .  A
C936        C939   1.443       .  S
C939        N941   1.156       .  T
C940        N942   1.157       .  T
C943        C944   1.400       .  A
C943        C948   1.406       .  A
C944        C945   1.393       .  A
C945        C946   1.410       .  A
C945        C952   1.436       .  S
C946        C947   1.416       .  A
C947        C948   1.404       .  A
C947        H950   1.082       .  S
C948        C951   1.439       .  S
C951        N953   1.156       .  T
C952        N954   1.155       .  T
C955        C960   1.417   1_556  A
C956        C957   1.402       .  A
C956        H961   1.084       .  S
C957        C964   1.441       .  S
C958        C959   1.394   1_556  A
C959        C960   1.391       .  A
C959        H962   1.084       .  S
C960        C963   1.446       .  S
C963        N965   1.157       .  T
C964        N966   1.157       .  T
C967        C968   1.391       .  A
C967        C972   1.412       .  A
C968        C969   1.386       .  A
C968        H973   1.087       .  S
C969        C970   1.423       .  A
C969        C976   1.435       .  S
C970        C971   1.413       .  A
C971        C972   1.412       .  A
C971        H974   1.081       .  S
C972        C975   1.443       .  S
C975        N977   1.157       .  T
C976        N978   1.153       .  T
C979        C980   1.417       .  A
C979        C984   1.415       .  A
C980        C981   1.408       .  A
C980        H985   1.077       .  S
C981        C982   1.408       .  A
C981        C988   1.444       .  S
C982        C983   1.391       .  A
C983        C984   1.391       .  A
C983        H986   1.081       .  S
C984        C987   1.430       .  S
C987        N989   1.152       .  T
C988        N990   1.157       .  T
C991        C996   1.407       .  A
C992        C993   1.405       .  A
C992        H997   1.085       .  S
C993       C1000   1.444       .  S
C994        C995   1.409       .  A
C995        C996   1.403       .  A
C995        H998   1.084       .  S
C996        C999   1.443       .  S
C999       N1001   1.157       .  T
C1000      N1002   1.158       .  T
C1003      C1004   1.406       .  A
C1003      C1008   1.408       .  A
C1004      C1005   1.404       .  A
C1004      H1009   1.085       .  S
C1005      C1006   1.411       .  A
C1005      C1012   1.441       .  S
C1006      C1007   1.405       .  A
C1007      C1008   1.408       .  A
C1007      H1010   1.082       .  S
C1011      N1013   1.156   1_554  T
C1012      N1014   1.157       .  T
C1015      C1016   1.407       .  A
C1015      C1020   1.409       .  A
C1016      C1017   1.410       .  A
C1016      H1021   1.085       .  S
C1017      C1018   1.422       .  A
C1017      C1024   1.441   1_556  S
C1018      C1019   1.412       .  A
C1019      C1020   1.400       .  A
C1019      H1022   1.084       .  S
C1020      C1023   1.441       .  S
C1023      N1025   1.157       .  T
C1024      N1026   1.158       .  T
