geometry optimzed in LAMMPS
_audit_creation_date              2020-11-30 
_audit_creation_method            'lammps2cif' 
_symmetry_space_group_name_H-M    'P1' 
_symmetry_Int_Tables_number       1 
_symmetry_cell_setting            triclinic 
loop_ 
_symmetry_equiv_pos_as_xyz 
  x,y,z 
_cell_length_a                    47.09025885 
_cell_length_b                    47.324471340343464 
_cell_length_c                    34.81302659682557 
_cell_angle_alpha                 90.09926262237934 
_cell_angle_beta                  90.02407742560871 
_cell_angle_gamma                 89.15642045833496 
loop_ 
_atom_site_label 
_atom_site_type_symbol 
_atom_site_fract_x 
_atom_site_fract_y 
_atom_site_fract_z 
_atom_site_charge 
C1          C  0.42331393  0.18335839  0.45789853     0.31100
C2          C  0.42231301  0.18189466  0.03738003     0.31100
C3          C  0.43307530  0.15527709  0.47675470    -0.05100
C4          C  0.44139804  0.20487294  0.47884703    -0.05900
C5          C  0.39390722  0.18798402  0.47697553    -0.05800
C6          C  0.43215005  0.15436893  0.01702015    -0.05100
C7          C  0.44100656  0.20418223  0.01874560    -0.05900
C8          C  0.39336806  0.18728392  0.01734442    -0.05800
C9          C  0.44192157  0.12787389  0.02777120    -0.31200
N10         N  0.45024477  0.11365381  0.99585145     0.15300
C11         C  0.44435276  0.12969279  0.46465283    -0.31200
H12         H  0.44872819  0.12300670  0.43554611     0.17300
C13         C  0.45903297  0.22474290  0.03146825    -0.30200
N14         N  0.47038165  0.23754015  0.50029201     0.14000
C15         C  0.45952238  0.22572162  0.46805127    -0.30200
C16         C  0.36648147  0.19607382  0.02844753    -0.30400
N17         N  0.35138014  0.20305645  0.99662318     0.14600
H18         H  0.35904914  0.19972778  0.05740733     0.17200
C19         C  0.36742935  0.19733114  0.46521266    -0.30500
H20         H  0.36057697  0.20154689  0.43614167     0.17200
H21         H  0.46452239  0.23177587  0.43889111     0.17200
H22         H  0.44432503  0.11981153  0.05665031     0.17300
H23         H  0.46416097  0.22950117  0.06107173     0.17200
C24         C  0.42217842  0.18195414  0.20815961     0.31100
C25         C  0.42318803  0.18261274  0.28766391     0.31100
C26         C  0.43109114  0.15389813  0.22791474    -0.05100
C27         C  0.44176260  0.20318223  0.22727860    -0.05900
C28         C  0.39355466  0.18820956  0.22830426    -0.05800
C29         C  0.43163163  0.15428989  0.26825898    -0.05100
C30         C  0.44228765  0.20349836  0.26717729    -0.05900
C31         C  0.39397765  0.18862369  0.26864308    -0.05800
C32         C  0.44222627  0.12837189  0.27990301    -0.31200
N33         N  0.44872247  0.11280332  0.24839778     0.15300
C34         C  0.44120689  0.12760740  0.21662457    -0.31200
H35         H  0.44470586  0.12018506  0.18762510     0.17300
C36         C  0.46085709  0.22398640  0.27826849    -0.30200
N37         N  0.47159056  0.23599705  0.24613966     0.14000
C38         C  0.45995203  0.22353925  0.21484789    -0.30200
C39         C  0.36728978  0.19761326  0.28040107    -0.30400
N40         N  0.35144206  0.20345928  0.24883429     0.14600
H41         H  0.36032534  0.20182100  0.30945391     0.17200
C42         C  0.36677136  0.19685022  0.21713625    -0.30500
H43         H  0.35909572  0.19973105  0.18814283     0.17200
H44         H  0.46403501  0.22918200  0.18526531     0.17200
H45         H  0.44611084  0.12138832  0.30899467     0.17300
H46         H  0.46638304  0.22956944  0.30747061     0.17200
C47         C  0.37257160  0.41980168  0.45855409     0.31100
C48         C  0.37201444  0.42084630  0.03758733     0.31100
C49         C  0.40117672  0.42678040  0.47815092    -0.05100
C50         C  0.35237289  0.44188471  0.47747170    -0.05900
C51         C  0.36401290  0.39210243  0.47832351    -0.05800
C52         C  0.40077093  0.42737625  0.01856027    -0.05100
C53         C  0.35164913  0.44190757  0.01755181    -0.05900
C54         C  0.36320666  0.39277253  0.01850810    -0.05800
C55         C  0.42226984  0.44529160  0.02988516    -0.31200
N56         N  0.43628352  0.45457762  0.49845149     0.15300
C57         C  0.42309797  0.44426980  0.46696956    -0.31200
H58         H  0.42714619  0.45160738  0.43809357     0.17300
C59         C  0.33098792  0.46120805  0.02857064    -0.30200
N60         N  0.31969678  0.47354661  0.49666875     0.14000
C61         C  0.33296987  0.46218321  0.46541488    -0.30200
C62         C  0.34442199  0.37196398  0.02948511    -0.30400
N63         N  0.33587281  0.35746966  0.49803478     0.14600
H64         H  0.33618260  0.36868381  0.05812601     0.17200
C65         C  0.34731344  0.36982262  0.46662885    -0.30500
H66         H  0.34164093  0.36475120  0.43731422     0.17200
H67         H  0.32831543  0.46785686  0.43598857     0.17200
H68         H  0.42595225  0.45283457  0.05880149     0.17300
H69         H  0.32466655  0.46596050  0.05775651     0.17200
C70         C  0.37183581  0.41891154  0.20857316     0.31100
C71         C  0.37259460  0.41889762  0.28763145     0.31100
C72         C  0.40024269  0.42672468  0.22734042    -0.05100
C73         C  0.35079502  0.43957332  0.22847973    -0.05900
C74         C  0.36432173  0.39067125  0.22813760    -0.05800
C75         C  0.40072200  0.42670922  0.26768447    -0.05100
C76         C  0.35156543  0.43994305  0.26855826    -0.05900
C77         C  0.36468390  0.39077239  0.26850193    -0.05800
C78         C  0.42203115  0.44500664  0.27841768    -0.31200
N79         N  0.43498047  0.45501002  0.24668301     0.15300
C80         C  0.42125335  0.44492422  0.21546933    -0.31200
H81         H  0.42489147  0.45195151  0.18633183     0.17300
C82         C  0.33267017  0.46071318  0.28049951    -0.30200
N83         N  0.32000859  0.47252732  0.24912465     0.14000
C84         C  0.33068214  0.45939116  0.21731898    -0.30200
C85         C  0.34670622  0.36960694  0.28037498    -0.30400
N86         N  0.33638813  0.35616262  0.24910918     0.14600
H87         H  0.34001620  0.36562177  0.30958180     0.17200
C88         C  0.34606118  0.36937315  0.21738300    -0.30500
H89         H  0.33811471  0.36553083  0.18869432     0.17200
H90         H  0.32404531  0.46364926  0.18814394     0.17200
H91         H  0.42597497  0.45279131  0.30714109     0.17300
H92         H  0.32891795  0.46728003  0.30985010     0.17200
O93         O  0.47970698  0.47154348  0.47560724    -0.77400
C94         C  0.01959346  0.02798296  0.39287734     0.83600
O95         O  0.07583508  0.48614426  0.02089244    -0.78500
O96         O  0.06351724  0.08194579  0.47569736    -0.80000
O97         O  0.46246584  0.06830096  0.01685850    -0.79800
O98         O  0.45666116  0.49654965  0.02017672    -0.78500
Zn99       Zn  0.01634977  0.49325127  0.46535347     1.55700
O100        O  0.99109417  0.08991755  0.47549599    -0.79900
Cd101      Cd  0.48367719  0.03051791  0.02751201     1.59700
Cd102      Cd  0.05371234  0.02353643  0.02983668     1.59600
O103        O  0.49399779  0.03076998  0.08402936    -0.79800
O104        O  0.01942305  0.02689051  0.49671457    -1.90300
Cd105      Cd  0.02460892  0.06207816  0.46630912     1.59900
O106        O  0.04113231  0.02421431  0.08504559    -0.79800
O107        O  0.02329001  0.05137098  0.40998295    -0.78500
C108        C  0.07161440  0.46656091  0.49657925     0.84100
C109        C  0.45851999  0.47511626  0.49807972     0.83700
O110        O  0.01638411  0.50474001  0.41053680    -0.77400
C111        C  0.46856211  0.08933127  0.99578328     0.84600
O112        O  0.05041641  0.46726511  0.47372319    -0.77500
C113        C  0.01738006  0.02754801  0.10175801     0.84700
C114        C  0.08323036  0.07682635  0.49996617     0.85000
O115        O  0.08177420  0.05623894  0.02329974    -0.79900
O116        O  0.04821418  0.46619749  0.27129100    -0.77400
C117        C  0.01928275  0.02794826  0.35139999     0.83600
O118        O  0.45596388  0.49611891  0.22354788    -0.78500
O119        O  0.99018895  0.08971823  0.26808214    -0.83600
O120        O  0.08224290  0.05385812  0.22268870    -0.79800
O121        O  0.07386196  0.48421742  0.22387877    -0.78500
Zn122      Zn  0.01501883  0.49307969  0.27943801     1.55700
O123        O  0.06336816  0.08131777  0.26813462    -0.79900
Cd124      Cd  0.05303182  0.02221532  0.21529204     1.59700
Cd125      Cd  0.48296244  0.02999801  0.21673653     1.59600
O126        O  0.04079957  0.02364392  0.15999780    -0.79800
O127        O  0.01858319  0.02644002  0.24785549    -1.90300
Cd128      Cd  0.02396653  0.06195313  0.27761596     1.59900
O129        O  0.49369101  0.03055356  0.16040716    -0.79800
O130        O  0.02277391  0.05128674  0.33410338    -0.78500
C131        C  0.45731207  0.47532448  0.24664954     0.84100
C132        C  0.06926478  0.46489718  0.24831049     0.83700
O133        O  0.01577904  0.50465557  0.33394749    -0.77400
C134        C  0.08360805  0.07507151  0.24507568     0.84600
O135        O  0.47810630  0.47213557  0.26981177    -0.77500
C136        C  0.01720396  0.02733098  0.14299345     0.84700
C137        C  0.46736727  0.08870743  0.24833178     0.85000
O138        O  0.46122415  0.06742025  0.22768556    -0.79900
C139        C  0.10749251  0.36987087  0.45809739     0.31100
C140        C  0.10885562  0.37130836  0.03755642     0.31100
C141        C  0.10402797  0.39941439  0.47692161    -0.05100
C142        C  0.08506697  0.35290008  0.47907306    -0.05900
C143        C  0.13530686  0.35902567  0.47722193    -0.05800
C144        C  0.10486840  0.40018149  0.01727596    -0.05100
C145        C  0.08571816  0.35356784  0.01896066    -0.05900
C146        C  0.13609481  0.36002073  0.01749181    -0.05800
C147        C  0.09708484  0.42728601  0.02817407    -0.31200
N148        N  0.09005101  0.44222821  0.49631126     0.15300
C149        C  0.09517829  0.42591630  0.46501093    -0.31200
H150        H  0.09078636  0.43263166  0.43595249     0.17300
C151        C  0.06542953  0.33532586  0.03184556    -0.30200
N152        N  0.05260736  0.32373658  0.50078503     0.14000
C153        C  0.06447132  0.33433861  0.46845255    -0.30200
C154        C  0.16222052  0.34905592  0.02858196    -0.30400
N155        N  0.17644765  0.34031181  0.49682150     0.14600
H156        H  0.17012383  0.34642979  0.05751569     0.17200
C157        C  0.16071325  0.34680100  0.46542763    -0.30500
H158        H  0.16759548  0.34252281  0.43638690     0.17200
H159        H  0.05905155  0.32834639  0.43934826     0.17200
H160        H  0.09402540  0.43499639  0.05712799     0.17300
H161        H  0.06136225  0.32978578  0.06144680     0.17200
C162        C  0.10914390  0.36991338  0.20824366     0.31100
C163        C  0.10846600  0.36927792  0.28776780     0.31100
C164        C  0.10351150  0.39869993  0.22825438    -0.05100
C165        C  0.08728164  0.35109174  0.22740086    -0.05900
C166        C  0.13705244  0.36034824  0.22808707    -0.05800
C167        C  0.10284915  0.39829654  0.26860735    -0.05100
C168        C  0.08699970  0.35073504  0.26730650    -0.05900
C169        C  0.13684849  0.36024002  0.26842972    -0.05800
C170        C  0.09287185  0.42449734  0.28027478    -0.31200
N171        N  0.08727448  0.44033445  0.24878331     0.15300
C172        C  0.09466194  0.42539052  0.21706271    -0.31200
H173        H  0.09149893  0.43296706  0.18812769     0.17300
C174        C  0.06607966  0.33271870  0.27849256    -0.30200
N175        N  0.05366620  0.32222971  0.24643028     0.14000
C176        C  0.06648667  0.33328998  0.21506647    -0.30200
C177        C  0.16296578  0.34952635  0.28000946    -0.30400
N178        N  0.17803343  0.34190154  0.24840031     0.14600
H179        H  0.17008930  0.34589113  0.30912253     0.17200
C180        C  0.16298737  0.34921713  0.21674335    -0.30500
H181        H  0.17041565  0.34576886  0.18773215     0.17200
H182        H  0.06111887  0.32863263  0.18551118     0.17200
H183        H  0.08840265  0.43145705  0.30922504     0.17300
H184        H  0.06085236  0.32704841  0.30772816     0.17200
C185        C  0.18126068  0.11184273  0.03682890     0.31100
C186        C  0.17943915  0.11271770  0.45748021     0.31100
C187        C  0.18791950  0.14048252  0.01751305    -0.05100
C188        C  0.20124345  0.09122620  0.01591329    -0.05900
C189        C  0.15217134  0.10529258  0.01829568    -0.05800
C190        C  0.18715938  0.14095045  0.47726438    -0.05100
C191        C  0.20039304  0.09155970  0.47604635    -0.05900
C192        C  0.15106254  0.10620895  0.47806643    -0.05800
C193        C  0.19434177  0.16804641  0.46609783    -0.31200
N194        N  0.19995131  0.18354907  0.49797234     0.15300
C195        C  0.19524661  0.16727670  0.02928252    -0.31200
H196        H  0.19792984  0.17454076  0.05848983     0.17300
C197        C  0.21977399  0.07143332  0.46340068    -0.30200
N198        N  0.23229711  0.05903312  0.49451998     0.14000
C199        C  0.22093828  0.07099100  0.02667671    -0.30200
C200        C  0.12349740  0.09978093  0.46767537    -0.30400
N201        N  0.10864454  0.09324514  0.49974600     0.14600
H202        H  0.11512045  0.09818493  0.43886449     0.17200
C203        C  0.12565096  0.09716686  0.03072144    -0.30500
H204        H  0.11922502  0.09315169  0.05999220     0.17200
H205        H  0.22682200  0.06560956  0.05586301     0.17200
H206        H  0.19692832  0.17565049  0.43706311     0.17300
H207        H  0.22405858  0.06597365  0.43376459     0.17200
C208        C  0.18008474  0.11244226  0.28658568     0.31100
C209        C  0.18138384  0.11109194  0.20725425     0.31100
C210        C  0.18669574  0.14072436  0.26643628    -0.05100
C211        C  0.20164942  0.09198299  0.26805248    -0.05900
C212        C  0.15183993  0.10464004  0.26642003    -0.05800
C213        C  0.18739569  0.14019661  0.22618943    -0.05100
C214        C  0.20225272  0.09124179  0.22821341    -0.05900
C215        C  0.15258320  0.10381822  0.22618899    -0.05800
C216        C  0.19500481  0.16712376  0.21447007    -0.31200
N217        N  0.19960283  0.18333024  0.24603485     0.15300
C218        C  0.19392997  0.16766303  0.27763383    -0.31200
H219        H  0.19626217  0.17525356  0.30676117     0.17300
C220        C  0.22276775  0.07164698  0.21776020    -0.30200
N221        N  0.23476188  0.06046662  0.25009167     0.14000
C222        C  0.22201814  0.07304677  0.28096178    -0.30200
C223        C  0.12591922  0.09561980  0.21414985    -0.30400
N224        N  0.10931780  0.09112722  0.24534571     0.14600
H225        H  0.11900314  0.09235004  0.18488973     0.17200
C226        C  0.12453079  0.09740808  0.27725085    -0.30500
H227        H  0.11643671  0.09544460  0.30614814     0.17200
H228        H  0.22739141  0.06926482  0.31072526     0.17200
H229        H  0.19871695  0.17414362  0.18540780     0.17300
H230        H  0.22818745  0.06569398  0.18862015     0.17200
O231        O  0.24003801  0.26927603  0.41208806    -0.77400
C232        C  0.21634727  0.20888923  0.49873339     0.83600
O233        O  0.22228020  0.32912340  0.01814238    -0.78500
O234        O  0.26717821  0.25042676  0.08594935    -0.80000
O235        O  0.32622783  0.24215336  0.47332101    -0.79800
O236        O  0.28695086  0.27614168  0.41029235    -0.78500
Zn237      Zn  0.22945110  0.26768698  0.46712886     1.55700
O238        O  0.30734579  0.21760559  0.02119224    -0.79900
Cd239      Cd  0.29877467  0.27629234  0.46591909     1.59700
Cd240      Cd  0.26052292  0.30825339  0.02869591     1.59600
O241        O  0.32032732  0.31383937  0.47507100    -0.79800
O242        O  0.26382105  0.27278384  0.49750882    -1.90300
Cd243      Cd  0.26897755  0.23861470  0.03015162     1.59900
O244        O  0.29460822  0.33555086  0.02026344    -0.79800
O245        O  0.23720925  0.20994028  0.02188199    -0.78500
C246        C  0.20130804  0.32252152  0.49697206     0.84100
C247        C  0.26313387  0.27286808  0.39404863     0.83700
O248        O  0.21069396  0.22917770  0.47571536    -0.77400
C249        C  0.32697898  0.22146936  0.99672816     0.84600
O250        O  0.20143935  0.29998455  0.47674617    -0.77500
C251        C  0.31600486  0.33464761  0.99773664     0.84700
C252        C  0.26326104  0.27392986  0.10283303     0.85000
O253        O  0.26014079  0.29736051  0.08544095    -0.79900
O254        O  0.21037166  0.22938064  0.22479423    -0.77400
C255        C  0.20238820  0.32344208  0.24850619     0.83600
O256        O  0.28739225  0.27590657  0.16041107    -0.78500
O257        O  0.29524340  0.33460099  0.27185491    -0.80000
O258        O  0.26509250  0.24920962  0.33606142    -0.79800
O259        O  0.23729172  0.20913719  0.26981121    -0.78500
Zn260      Zn  0.22940118  0.26824367  0.21707578     1.55700
O261        O  0.26119112  0.29643770  0.33587522    -0.79900
Cd262      Cd  0.26838980  0.23808071  0.28014891     1.59700
Cd263      Cd  0.29862287  0.27576267  0.21631860     1.59600
O264        O  0.30729584  0.21782715  0.27309853    -0.79800
O265        O  0.26369484  0.27245932  0.24776006    -1.90300
Cd266      Cd  0.26113624  0.30763961  0.27959300     1.59900
O267        O  0.32590052  0.24178940  0.22446839    -0.79800
O268        O  0.22342023  0.32935682  0.26989346    -0.78500
C269        C  0.26350613  0.27387659  0.14393912     0.84100
C270        C  0.21624467  0.20855818  0.24693568     0.83700
O271        O  0.20204747  0.30108648  0.22784912    -0.77400
C272        C  0.26271158  0.27283770  0.35306097     0.84600
O273        O  0.24022031  0.27096037  0.16186424    -0.77500
C274        C  0.32689383  0.22157705  0.24857987     0.84700
C275        C  0.31641374  0.33356890  0.24907414     0.85000
O276        O  0.32031627  0.31295355  0.22600354    -0.79900
C277        C  0.20083119  0.12664280  0.39258683    -0.20200
C278        C  0.18011386  0.11171603  0.41316378    -0.08300
C279        C  0.16445554  0.09181683  0.39190290     0.30600
C280        C  0.16451624  0.09225040  0.35159230    -0.20200
C281        C  0.18089820  0.11171391  0.33093862    -0.08300
C282        C  0.20169407  0.12617913  0.35224776     0.30600
F283        F  0.22424761  0.13795768  0.33453175    -0.18800
H284        H  0.21741477  0.13763409  0.40767861     0.18900
H285        H  0.15300818  0.07599549  0.33671275     0.18900
F286        F  0.15117354  0.07020709  0.40956691    -0.18800
C287        C  0.16888795  0.08896964  0.10144040    -0.20200
C288        C  0.18357057  0.10988309  0.08103568    -0.08300
C289        C  0.20396639  0.12500780  0.10224263     0.30600
C290        C  0.20339741  0.12507098  0.14258290    -0.20200
C291        C  0.18348457  0.10907387  0.16304969    -0.08300
C292        C  0.16934054  0.08808710  0.14177514     0.30600
F293        F  0.15779724  0.06550331  0.15949417    -0.18800
H294        H  0.15792022  0.07247137  0.08621947     0.18900
H295        H  0.21953299  0.13666854  0.15769302     0.18900
F296        F  0.22598288  0.13769759  0.08449492    -0.18800
C297        C  0.11937188  0.34604932  0.39340945    -0.20200
C298        C  0.10515500  0.36771090  0.41389204    -0.08300
C299        C  0.08498117  0.38358578  0.39266330     0.30600
C300        C  0.08581966  0.38368862  0.35232783    -0.20200
C301        C  0.10616199  0.36743440  0.33196849    -0.08300
C302        C  0.11957788  0.34559325  0.35310043     0.30600
F303        F  0.13044644  0.32236916  0.33525775    -0.18800
H304        H  0.12894545  0.32839416  0.40834461     0.18900
H305        H  0.06942054  0.39529039  0.33720927     0.18900
F306        F  0.06290099  0.39690408  0.41037215    -0.18800
C307        C  0.12174167  0.34840980  0.10213796    -0.20200
C308        C  0.10763929  0.37021030  0.08185150    -0.08300
C309        C  0.08757121  0.38621856  0.10318078     0.30600
C310        C  0.08795724  0.38581315  0.14351974    -0.20200
C311        C  0.10764366  0.36885764  0.16391348    -0.08300
C312        C  0.12125911  0.34729479  0.14239496     0.30600
F313        F  0.13144463  0.32357066  0.15963193    -0.18800
H314        H  0.13160435  0.33095581  0.08696604     0.18900
H315        H  0.07159333  0.39755036  0.15858639     0.18900
F316        F  0.06584740  0.40008911  0.08549149    -0.18800
C317        C  0.27986643  0.49775671  0.28057034    -0.20200
C318        C  0.29901647  0.99518072  0.24973308    -0.08300
C319        C  0.29727367  0.01517262  0.21983510     0.30600
C320        C  0.27649257  0.03662761  0.22052692    -0.20200
C321        C  0.25691938  0.03888861  0.25094102    -0.08300
C322        C  0.25907237  0.01923811  0.28129588     0.30600
F323        F  0.24046722  0.01988838  0.31101236    -0.18800
H324        H  0.28051313  0.48262110  0.30384168     0.18900
H325        H  0.27592192  0.05173735  0.19723620     0.18900
F326        F  0.31609071  0.01458423  0.19034834    -0.18800
C327        C  0.29704412  0.01580645  0.46733543    -0.20200
C328        C  0.29729668  0.99479115  0.49586939    -0.08300
C329        C  0.27526546  0.49493577  0.02328998     0.30600
C330        C  0.25397887  0.01588613  0.02240248    -0.20200
C331        C  0.25390069  0.03703602  0.49410508    -0.08300
C332        C  0.27565728  0.03669863  0.46637976     0.30600
F333        F  0.27697146  0.05719844  0.43928642    -0.18800
H334        H  0.31383842  0.01643402  0.44615197     0.18900
H335        H  0.23724601  0.01539690  0.04369404     0.18900
F336        F  0.27370541  0.47440747  0.05032161    -0.18800
C337        C  0.39752265  0.41253989  0.39354047    -0.20200
C338        C  0.37235604  0.41807198  0.41425221    -0.08300
C339        C  0.34677478  0.41895806  0.39302867     0.30600
C340        C  0.34711940  0.41918778  0.35266989    -0.20200
C341        C  0.37279775  0.41764993  0.33196060    -0.08300
C342        C  0.39777481  0.41182540  0.35326856     0.30600
F343        F  0.42228432  0.40379867  0.33565897    -0.18800
H344        H  0.41713743  0.40766505  0.40842405     0.18900
H345        H  0.32704844  0.42015887  0.33753993     0.18900
F346        F  0.32126389  0.41879819  0.41108853    -0.18800
C347        C  0.37859671  0.39548625  0.10209510    -0.20200
C348        C  0.37306070  0.42076766  0.08191856    -0.08300
C349        C  0.37203707  0.44594452  0.10372627     0.30600
C350        C  0.37142211  0.44507232  0.14408549    -0.20200
C351        C  0.37287954  0.41925461  0.16421056    -0.08300
C352        C  0.37904070  0.39471870  0.14235241     0.30600
F353        F  0.38726894  0.37019767  0.15942779    -0.18800
H354        H  0.38354016  0.37614596  0.08673539     0.18900
H355        H  0.37049560  0.46486002  0.15968059     0.18900
F356        F  0.37280835  0.47153165  0.08631450    -0.18800
C357        C  0.49027247  0.27993694  0.27291086    -0.20200
C358        C  0.49186828  0.25819057  0.24552539    -0.08300
C359        C  0.01365576  0.25821643  0.21798458     0.30600
C360        C  0.03357385  0.27961129  0.21811119    -0.20200
C361        C  0.03218875  0.30119103  0.24570120    -0.08300
C362        C  0.01020693  0.30139242  0.27299766     0.30600
F363        F  0.00765034  0.32258700  0.29913165    -0.18800
H364        H  0.47334554  0.28042846  0.29397508     0.18900
H365        H  0.05064733  0.27889072  0.19727936     0.18900
F366        F  0.01643380  0.23695647  0.19200656    -0.18800
C367        C  0.48972224  0.28085871  0.02836148    -0.20200
C368        C  0.99142599  0.25902394  0.50110809    -0.08300
C369        C  0.01393922  0.25838097  0.47465870     0.30600
C370        C  0.03395506  0.27965960  0.47490117    -0.20200
C371        C  0.03202895  0.30180051  0.50160656    -0.08300
C372        C  0.00989096  0.30217466  0.02868264     0.30600
F373        F  0.00723292  0.32357489  0.05447929    -0.18800
H374        H  0.47242375  0.28165442  0.04884877     0.18900
H375        H  0.05128833  0.27866019  0.45449035     0.18900
F376        F  0.01706931  0.23674753  0.44930915    -0.18800
C377        C  0.44681466  0.17113303  0.39309673    -0.20200
C378        C  0.42538018  0.18566068  0.41370897    -0.08300
C379        C  0.40979151  0.20609344  0.39265694     0.30600
C380        C  0.40925457  0.20512944  0.35233356    -0.20200
C381        C  0.42530175  0.18476120  0.33183011    -0.08300
C382        C  0.44719211  0.17109502  0.35278950     0.30600
F383        F  0.47037883  0.16007431  0.33482537    -0.18800
H384        H  0.46437522  0.16114790  0.40797489     0.18900
H385        H  0.39742650  0.22138366  0.33726261     0.18900
F386        F  0.39727697  0.22849566  0.41052600    -0.18800
C387        C  0.44435752  0.16848304  0.14317733    -0.20200
C388        C  0.42322567  0.18338896  0.16382675    -0.08300
C389        C  0.40762009  0.20382963  0.14267693     0.30600
C390        C  0.40718585  0.20300459  0.10234125    -0.20200
C391        C  0.42350052  0.18294250  0.08170889    -0.08300
C392        C  0.44504406  0.16884346  0.10286664     0.30600
F393        F  0.46842534  0.15799620  0.08519784    -0.18800
H394        H  0.46157037  0.15795877  0.15810884     0.18900
H395        H  0.39539914  0.21931497  0.08735234     0.18900
F396        F  0.39516798  0.22633019  0.16038977    -0.18800
C397        C  0.42331397  0.18335841  0.95789853     0.31100
C398        C  0.42231300  0.18189461  0.53738003     0.31100
C399        C  0.43307536  0.15527712  0.97675470    -0.05100
C400        C  0.44139804  0.20487299  0.97884701    -0.05900
C401        C  0.39390726  0.18798401  0.97697552    -0.05800
C402        C  0.43215001  0.15436887  0.51702015    -0.05100
C403        C  0.44100658  0.20418216  0.51874562    -0.05900
C404        C  0.39336806  0.18728391  0.51734444    -0.05800
C405        C  0.44192153  0.12787382  0.52777121    -0.31200
N406        N  0.45024473  0.11365377  0.49585140     0.15300
C407        C  0.44435283  0.12969280  0.96465277    -0.31200
H408        H  0.44872821  0.12300675  0.93554641     0.17300
C409        C  0.45903300  0.22474283  0.53146832    -0.30200
N410        N  0.47038162  0.23754022  0.00029195     0.14000
C411        C  0.45952235  0.22572167  0.96805123    -0.30200
C412        C  0.36648147  0.19607380  0.52844758    -0.30400
N413        N  0.35138011  0.20305643  0.49662327     0.14600
H414        H  0.35904916  0.19972773  0.55740740     0.17200
C415        C  0.36742943  0.19733113  0.96521273    -0.30500
H416        H  0.36057699  0.20154694  0.93614124     0.17200
H417        H  0.46452235  0.23177593  0.93889103     0.17200
H418        H  0.44432500  0.11981146  0.55665019     0.17300
H419        H  0.46416098  0.22950106  0.56107168     0.17200
C420        C  0.42217849  0.18195415  0.70815962     0.31100
C421        C  0.42318806  0.18261273  0.78766392     0.31100
C422        C  0.43109118  0.15389813  0.72791476    -0.05100
C423        C  0.44176269  0.20318220  0.72727863    -0.05900
C424        C  0.39355473  0.18820959  0.72830424    -0.05800
C425        C  0.43163163  0.15428988  0.76825901    -0.05100
C426        C  0.44228770  0.20349833  0.76717733    -0.05900
C427        C  0.39397770  0.18862371  0.76864306    -0.05800
C428        C  0.44222625  0.12837186  0.77990307    -0.31200
N429        N  0.44872246  0.11280330  0.74839781     0.15300
C430        C  0.44120692  0.12760741  0.71662465    -0.31200
H431        H  0.44470593  0.12018504  0.68762501     0.17300
C432        C  0.46085712  0.22398637  0.77826860    -0.30200
N433        N  0.47159062  0.23599702  0.74613975     0.14000
C434        C  0.45995213  0.22353921  0.71484797    -0.30200
C435        C  0.36728984  0.19761329  0.78040102    -0.30400
N436        N  0.35144213  0.20345932  0.74883423     0.14600
H437        H  0.36032538  0.20182104  0.80945390     0.17200
C438        C  0.36677144  0.19685025  0.71713623    -0.30500
H439        H  0.35909580  0.19973109  0.68814271     0.17200
H440        H  0.46403516  0.22918197  0.68526537     0.17200
H441        H  0.44611079  0.12138830  0.80899464     0.17300
H442        H  0.46638302  0.22956942  0.80747064     0.17200
C443        C  0.37257151  0.41980173  0.95855410     0.31100
C444        C  0.37201450  0.42084627  0.53758734     0.31100
C445        C  0.40117662  0.42678050  0.97815092    -0.05100
C446        C  0.35237276  0.44188472  0.97747170    -0.05900
C447        C  0.36401288  0.39210246  0.97832350    -0.05800
C448        C  0.40077101  0.42737616  0.51856027    -0.05100
C449        C  0.35164924  0.44190758  0.51755181    -0.05900
C450        C  0.36320668  0.39277251  0.51850811    -0.05800
C451        C  0.42226990  0.44529153  0.52988516    -0.31200
N452        N  0.43628346  0.45457766  0.99845145     0.15300
C453        C  0.42309788  0.44426986  0.96696954    -0.31200
H454        H  0.42714611  0.45160744  0.93809351     0.17300
C455        C  0.33098801  0.46120808  0.52857072    -0.30200
N456        N  0.31969665  0.47354661  0.99666880     0.14000
C457        C  0.33296972  0.46218321  0.96541489    -0.30200
C458        C  0.34442199  0.37196397  0.52948518    -0.30400
N459        N  0.33587282  0.35746967  0.99803474     0.14600
H460        H  0.33618266  0.36868383  0.55812589     0.17200
C461        C  0.34731345  0.36982266  0.96662886    -0.30500
H462        H  0.34164090  0.36475123  0.93731408     0.17200
H463        H  0.32831528  0.46785688  0.93598862     0.17200
H464        H  0.42595230  0.45283453  0.55880158     0.17300
H465        H  0.32466670  0.46596047  0.55775616     0.17200
C466        C  0.37183584  0.41891148  0.70857318     0.31100
C467        C  0.37259460  0.41889757  0.78763146     0.31100
C468        C  0.40024270  0.42672466  0.72734049    -0.05100
C469        C  0.35079501  0.43957324  0.72847971    -0.05900
C470        C  0.36432176  0.39067118  0.72813758    -0.05800
C471        C  0.40072200  0.42670921  0.76768454    -0.05100
C472        C  0.35156542  0.43994296  0.76855823    -0.05900
C473        C  0.36468395  0.39077232  0.76850192    -0.05800
C474        C  0.42203113  0.44500667  0.77841779    -0.31200
N475        N  0.43498044  0.45501005  0.74668310     0.15300
C476        C  0.42125333  0.44492421  0.71546946    -0.31200
H477        H  0.42489148  0.45195151  0.68633181     0.17300
C478        C  0.33267015  0.46071305  0.78049933    -0.30200
N479        N  0.32000857  0.47252723  0.74912461     0.14000
C480        C  0.33068213  0.45939110  0.71731884    -0.30200
C481        C  0.34670627  0.36960690  0.78037481    -0.30400
N482        N  0.33638813  0.35616258  0.74910917     0.14600
H483        H  0.34001613  0.36562169  0.80958218     0.17200
C484        C  0.34606117  0.36937307  0.71738285    -0.30500
H485        H  0.33811481  0.36553082  0.68869462     0.17200
H486        H  0.32404539  0.46364916  0.68814415     0.17200
H487        H  0.42597492  0.45279132  0.80714109     0.17300
H488        H  0.32891785  0.46727999  0.80985043     0.17200
O489        O  0.47970693  0.47154349  0.97560718    -0.77400
C490        C  0.01959343  0.02798299  0.89287737     0.83600
O491        O  0.07583510  0.48614427  0.52089250    -0.78500
O492        O  0.06351720  0.08194584  0.97569740    -0.80000
O493        O  0.46246584  0.06830093  0.51685847    -0.79800
O494        O  0.45666117  0.49654965  0.52017675    -0.78500
Zn495      Zn  0.01634974  0.49325129  0.96535344     1.55700
O496        O  0.99109414  0.08991757  0.97549606    -0.79900
Cd497      Cd  0.48367718  0.03051790  0.52751206     1.59700
Cd498      Cd  0.05371236  0.02353642  0.52983672     1.59600
O499        O  0.49399778  0.03076998  0.58402942    -0.79800
O500        O  0.01942302  0.02689052  0.99671456    -1.90300
Cd501      Cd  0.02460889  0.06207819  0.96630915     1.59900
O502        O  0.04113233  0.02421435  0.58504564    -0.79800
O503        O  0.02328996  0.05137101  0.90998298    -0.78500
C504        C  0.07161435  0.46656089  0.99657920     0.84100
C505        C  0.45851994  0.47511628  0.99807968     0.83700
O506        O  0.01638408  0.50474005  0.91053681    -0.77400
C507        C  0.46856209  0.08933123  0.49578323     0.84600
O508        O  0.05041636  0.46726511  0.97372316    -0.77500
C509        C  0.01738008  0.02754805  0.60175805     0.84700
C510        C  0.08323034  0.07682638  0.99996619     0.85000
O511        O  0.08177422  0.05623892  0.52329975    -0.79900
O512        O  0.04821423  0.46619750  0.77129104    -0.77400
C513        C  0.01928276  0.02794829  0.85140003     0.83600
O514        O  0.45596387  0.49611892  0.72354797    -0.78500
O515        O  0.99018904  0.08971825  0.76808221    -0.83600
O516        O  0.08224294  0.05385813  0.72268874    -0.79800
O517        O  0.07386201  0.48421745  0.72387882    -0.78500
Zn518      Zn  0.01501886  0.49307970  0.77943806     1.55700
O519        O  0.06336822  0.08131777  0.76813469    -0.79900
Cd520      Cd  0.05303186  0.02221535  0.71529207     1.59700
Cd521      Cd  0.48296249  0.02999801  0.71673660     1.59600
O522        O  0.04079959  0.02364398  0.65999784    -0.79800
O523        O  0.01858325  0.02644004  0.74785554    -1.90300
Cd524      Cd  0.02396660  0.06195315  0.77761601     1.59900
O525        O  0.49369104  0.03055359  0.66040724    -0.79800
O526        O  0.02277395  0.05128677  0.83410343    -0.78500
C527        C  0.45731205  0.47532450  0.74664965     0.84100
C528        C  0.06926483  0.46489720  0.74831053     0.83700
O529        O  0.01577908  0.50465560  0.83394752    -0.77400
C530        C  0.08360809  0.07507151  0.74507575     0.84600
O531        O  0.47810628  0.47213558  0.76981186    -0.77500
C532        C  0.01720398  0.02733103  0.64299349     0.84700
C533        C  0.46736730  0.08870744  0.74833183     0.85000
O534        O  0.46122416  0.06742022  0.72768565    -0.79900
C535        C  0.10749246  0.36987080  0.95809738     0.31100
C536        C  0.10885560  0.37130838  0.53755643     0.31100
C537        C  0.10402788  0.39941433  0.97692157    -0.05100
C538        C  0.08506698  0.35289998  0.97907310    -0.05900
C539        C  0.13530683  0.35902567  0.97722192    -0.05800
C540        C  0.10486846  0.40018155  0.51727600    -0.05100
C541        C  0.08571811  0.35356793  0.51896062    -0.05900
C542        C  0.13609478  0.36002071  0.51749182    -0.05800
C543        C  0.09708489  0.42728608  0.52817418    -0.31200
N544        N  0.09005094  0.44222815  0.99631122     0.15300
C545        C  0.09517820  0.42591623  0.96501092    -0.31200
H546        H  0.09078623  0.43263162  0.93595231     0.17300
C547        C  0.06542943  0.33532597  0.53184548    -0.30200
N548        N  0.05260744  0.32373643  0.00078515     0.14000
C549        C  0.06447136  0.33433847  0.96845266    -0.30200
C550        C  0.16222045  0.34905588  0.52858191    -0.30400
N551        N  0.17644766  0.34031183  0.99682143     0.14600
H552        H  0.17012380  0.34642972  0.55751598     0.17200
C553        C  0.16071319  0.34680100  0.96542771    -0.30500
H554        H  0.16759546  0.34252270  0.93638651     0.17200
H555        H  0.05905154  0.32834623  0.93934831     0.17200
H556        H  0.09402545  0.43499639  0.55712782     0.17300
H557        H  0.06136213  0.32978589  0.56144664     0.17200
C558        C  0.10914380  0.36991337  0.70824364     0.31100
C559        C  0.10846591  0.36927789  0.78776779     0.31100
C560        C  0.10351148  0.39869993  0.72825438    -0.05100
C561        C  0.08728149  0.35109179  0.72740082    -0.05900
C562        C  0.13705232  0.36034814  0.72808705    -0.05800
C563        C  0.10284914  0.39829653  0.76860736    -0.05100
C564        C  0.08699956  0.35073508  0.76730646    -0.05900
C565        C  0.13684837  0.36023991  0.76842970    -0.05800
C566        C  0.09287187  0.42449733  0.78027478    -0.31200
N567        N  0.08727453  0.44033447  0.74878335     0.15300
C568        C  0.09466196  0.42539054  0.71706271    -0.31200
H569        H  0.09149897  0.43296708  0.68812776     0.17300
C570        C  0.06607954  0.33271875  0.77849247    -0.30200
N571        N  0.05366608  0.32222975  0.74643024     0.14000
C572        C  0.06648654  0.33329002  0.71506642    -0.30200
C573        C  0.16296566  0.34952620  0.78000943    -0.30400
N574        N  0.17803328  0.34190137  0.74840027     0.14600
H575        H  0.17008918  0.34589098  0.80912249     0.17200
C576        C  0.16298723  0.34921698  0.71674329    -0.30500
H577        H  0.17041548  0.34576872  0.68773218     0.17200
H578        H  0.06111877  0.32863263  0.68551116     0.17200
H579        H  0.08840265  0.43145704  0.80922512     0.17300
H580        H  0.06085222  0.32704839  0.80772828     0.17200
C581        C  0.18126070  0.11184269  0.53682886     0.31100
C582        C  0.17943916  0.11271768  0.95748025     0.31100
C583        C  0.18791951  0.14048250  0.51751307    -0.05100
C584        C  0.20124347  0.09122618  0.51591320    -0.05900
C585        C  0.15217136  0.10529255  0.51829565    -0.05800
C586        C  0.18715939  0.14095045  0.97726435    -0.05100
C587        C  0.20039305  0.09155970  0.97604644    -0.05900
C588        C  0.15106254  0.10620895  0.97806647    -0.05800
C589        C  0.19434183  0.16804641  0.96609768    -0.31200
N590        N  0.19995136  0.18354906  0.99797229     0.15300
C591        C  0.19524661  0.16727670  0.52928266    -0.31200
H592        H  0.19792983  0.17454068  0.55848964     0.17300
C593        C  0.21977405  0.07143335  0.96340082    -0.30200
N594        N  0.23229717  0.05903319  0.99452016     0.14000
C595        C  0.22093825  0.07099093  0.52667657    -0.30200
C596        C  0.12349740  0.09978094  0.96767539    -0.30400
N597        N  0.10864452  0.09324518  0.99974602     0.14600
H598        H  0.11512045  0.09818493  0.93886450     0.17200
C599        C  0.12565098  0.09716681  0.53072143    -0.30500
H600        H  0.11922507  0.09315164  0.55999212     0.17200
H601        H  0.22682197  0.06560946  0.55586284     0.17200
H602        H  0.19692841  0.17565040  0.93706330     0.17300
H603        H  0.22405867  0.06597366  0.93376474     0.17200
C604        C  0.18008482  0.11244216  0.78658572     0.31100
C605        C  0.18138391  0.11109184  0.70725427     0.31100
C606        C  0.18669584  0.14072426  0.76643633    -0.05100
C607        C  0.20164948  0.09198288  0.76805251    -0.05900
C608        C  0.15184000  0.10463995  0.76642008    -0.05800
C609        C  0.18739577  0.14019650  0.72618947    -0.05100
C610        C  0.20225279  0.09124168  0.72821342    -0.05900
C611        C  0.15258328  0.10381813  0.72618905    -0.05800
C612        C  0.19500489  0.16712365  0.71447014    -0.31200
N613        N  0.19960294  0.18333012  0.74603488     0.15300
C614        C  0.19393011  0.16766295  0.77763401    -0.31200
H615        H  0.19626228  0.17525337  0.80676084     0.17300
C616        C  0.22276780  0.07164686  0.71776021    -0.30200
N617        N  0.23476190  0.06046649  0.75009169     0.14000
C618        C  0.22201818  0.07304662  0.78096183    -0.30200
C619        C  0.12591929  0.09561977  0.71414998    -0.30400
N620        N  0.10931786  0.09112720  0.74534577     0.14600
H621        H  0.11900315  0.09235003  0.68488963     0.17200
C622        C  0.12453083  0.09740804  0.77725099    -0.30500
H623        H  0.11643681  0.09544459  0.80614799     0.17200
H624        H  0.22739142  0.06926465  0.81072520     0.17200
H625        H  0.19871702  0.17414352  0.68540777     0.17300
H626        H  0.22818752  0.06569387  0.68862020     0.17200
O627        O  0.24003800  0.26927606  0.91208800    -0.77400
C628        C  0.21634730  0.20888923  0.99873332     0.83600
O629        O  0.22228019  0.32912340  0.51814247    -0.78500
O630        O  0.26717815  0.25042675  0.58594939    -0.80000
O631        O  0.32622784  0.24215337  0.97332087    -0.79800
O632        O  0.28695084  0.27614171  0.91029227    -0.78500
Zn633      Zn  0.22945111  0.26768699  0.96712880     1.55700
O634        O  0.30734575  0.21760554  0.52119234    -0.79900
Cd635      Cd  0.29877468  0.27629235  0.96591900     1.59700
Cd636      Cd  0.26052292  0.30825340  0.52869597     1.59600
O637        O  0.32032732  0.31383939  0.97507093    -0.79800
O638        O  0.26382106  0.27278385  0.99750875    -1.90300
Cd639      Cd  0.26897751  0.23861468  0.53015168     1.59900
O640        O  0.29460822  0.33555086  0.52026350    -0.79800
O641        O  0.23720918  0.20994028  0.52188207    -0.78500
C642        C  0.20130805  0.32252155  0.99697199     0.84100
C643        C  0.26313385  0.27286812  0.89404856     0.83700
O644        O  0.21069399  0.22917770  0.97571532    -0.77400
C645        C  0.32697896  0.22146934  0.49672826     0.84600
O646        O  0.20143935  0.29998455  0.97674610    -0.77500
C647        C  0.31600485  0.33464761  0.49773669     0.84700
C648        C  0.26326098  0.27392986  0.60283306     0.85000
O649        O  0.26014076  0.29736051  0.58544099    -0.79900
O650        O  0.21037171  0.22938052  0.72479423    -0.77400
C651        C  0.20238808  0.32344195  0.74850614     0.83600
O652        O  0.28739220  0.27590659  0.66041107    -0.78500
O653        O  0.29524335  0.33460101  0.77185483    -0.80000
O654        O  0.26509254  0.24920964  0.83606137    -0.79800
O655        O  0.23729180  0.20913712  0.76981122    -0.78500
Zn656      Zn  0.22940116  0.26824358  0.71707579     1.55700
O657        O  0.26119104  0.29643772  0.83587513    -0.79900
Cd658      Cd  0.26838984  0.23808069  0.78014889     1.59700
Cd659      Cd  0.29862285  0.27576265  0.71631858     1.59600
O660        O  0.30729591  0.21782719  0.77309852    -0.79800
O661        O  0.26369482  0.27245928  0.74776004    -1.90300
Cd662      Cd  0.26113618  0.30763960  0.77959291     1.59900
O663        O  0.32590051  0.24178936  0.72446826    -0.79800
O664        O  0.22342013  0.32935677  0.76989334    -0.78500
C665        C  0.26350607  0.27387658  0.64393915     0.84100
C666        C  0.21624476  0.20855807  0.74693571     0.83700
O667        O  0.20204736  0.30108632  0.72784914    -0.77400
C668        C  0.26271156  0.27283773  0.85306090     0.84600
O669        O  0.24022027  0.27096031  0.66186426    -0.77500
C670        C  0.32689387  0.22157706  0.74857981     0.84700
C671        C  0.31641374  0.33356885  0.74907410     0.85000
O672        O  0.32031628  0.31295350  0.72600358    -0.79900
C673        C  0.20083122  0.12664267  0.89258683    -0.20200
C674        C  0.18011389  0.11171598  0.91316381    -0.08300
C675        C  0.16445557  0.09181678  0.89190295     0.30600
C676        C  0.16451629  0.09225035  0.85159236    -0.20200
C677        C  0.18089827  0.11171382  0.83093864    -0.08300
C678        C  0.20169416  0.12617900  0.85224779     0.30600
F679        F  0.22424773  0.13795752  0.83453179    -0.18800
H680        H  0.21741494  0.13763404  0.90767873     0.18900
H681        H  0.15300818  0.07599541  0.83671277     0.18900
F682        F  0.15117353  0.07020708  0.90956698    -0.18800
C683        C  0.16888795  0.08896958  0.60144036    -0.20200
C684        C  0.18357060  0.10988303  0.58103564    -0.08300
C685        C  0.20396643  0.12500772  0.60224261     0.30600
C686        C  0.20339745  0.12507086  0.64258287    -0.20200
C687        C  0.18348462  0.10907377  0.66304967    -0.08300
C688        C  0.16934055  0.08808704  0.64177511     0.30600
F689        F  0.15779721  0.06550328  0.65949414    -0.18800
H690        H  0.15792024  0.07247136  0.58621945     0.18900
H691        H  0.21953309  0.13666845  0.65769304     0.18900
F692        F  0.22598291  0.13769754  0.58449492    -0.18800
C693        C  0.11937176  0.34604926  0.89340941    -0.20200
C694        C  0.10515491  0.36771083  0.91389202    -0.08300
C695        C  0.08498107  0.38358570  0.89266331     0.30600
C696        C  0.08581956  0.38368859  0.85232782    -0.20200
C697        C  0.10616190  0.36743435  0.83196847    -0.08300
C698        C  0.11957776  0.34559317  0.85310040     0.30600
F699        F  0.13044627  0.32236905  0.83525770    -0.18800
H700        H  0.12894538  0.32839402  0.90834463     0.18900
H701        H  0.06942050  0.39529035  0.83720930     0.18900
F702        F  0.06290088  0.39690397  0.91037218    -0.18800
C703        C  0.12174159  0.34840968  0.60213789    -0.20200
C704        C  0.10763924  0.37021030  0.58185150    -0.08300
C705        C  0.08757118  0.38621860  0.60318077     0.30600
C706        C  0.08795715  0.38581322  0.64351975    -0.20200
C707        C  0.10764355  0.36885763  0.66391346    -0.08300
C708        C  0.12125896  0.34729473  0.64239494     0.30600
F709        F  0.13144437  0.32357057  0.65963192    -0.18800
H710        H  0.13160408  0.33095591  0.58696620     0.18900
H711        H  0.07159339  0.39755037  0.65858627     0.18900
F712        F  0.06584739  0.40008918  0.58549146    -0.18800
C713        C  0.27986637  0.49775658  0.78057026    -0.20200
C714        C  0.29901651  0.99518066  0.74973315    -0.08300
C715        C  0.29727384  0.01517267  0.71983531     0.30600
C716        C  0.27649272  0.03662765  0.72052710    -0.20200
C717        C  0.25691938  0.03888848  0.75094105    -0.08300
C718        C  0.25907221  0.01923784  0.78129576     0.30600
F719        F  0.24046688  0.01988796  0.81101204    -0.18800
H720        H  0.28051303  0.48262092  0.80384159     0.18900
H721        H  0.27592217  0.05173748  0.69723653     0.18900
F722        F  0.31609104  0.01458440  0.69034874    -0.18800
C723        C  0.29704414  0.01580648  0.96733566    -0.20200
C724        C  0.29729665  0.99479113  0.99586954    -0.08300
C725        C  0.27526554  0.49493569  0.52328983     0.30600
C726        C  0.25397887  0.01588607  0.52240227    -0.20200
C727        C  0.25390076  0.03703610  0.99410530    -0.08300
C728        C  0.27565738  0.03669872  0.96638003     0.30600
F729        F  0.27697165  0.05719860  0.93928679    -0.18800
H730        H  0.31383850  0.01643404  0.94615216     0.18900
H731        H  0.23724596  0.01539683  0.54369391     0.18900
F732        F  0.27370549  0.47440736  0.55032143    -0.18800
C733        C  0.39752259  0.41253992  0.89354052    -0.20200
C734        C  0.37235598  0.41807201  0.91425223    -0.08300
C735        C  0.34677472  0.41895805  0.89302867     0.30600
C736        C  0.34711937  0.41918772  0.85266989    -0.20200
C737        C  0.37279772  0.41764990  0.83196062    -0.08300
C738        C  0.39777478  0.41182540  0.85326861     0.30600
F739        F  0.42228430  0.40379872  0.83565905    -0.18800
H740        H  0.41713737  0.40766508  0.90842413     0.18900
H741        H  0.32704841  0.42015878  0.83753991     0.18900
F742        F  0.32126382  0.41879820  0.91108850    -0.18800
C743        C  0.37859673  0.39548626  0.60209515    -0.20200
C744        C  0.37306075  0.42076763  0.58191857    -0.08300
C745        C  0.37203714  0.44594449  0.60372630     0.30600
C746        C  0.37142218  0.44507228  0.64408552    -0.20200
C747        C  0.37287958  0.41925456  0.66421059    -0.08300
C748        C  0.37904072  0.39471866  0.64235243     0.30600
F749        F  0.38726893  0.37019761  0.65942777    -0.18800
H750        H  0.38354021  0.37614584  0.58673532     0.18900
H751        H  0.37049567  0.46485997  0.65968064     0.18900
F752        F  0.37280844  0.47153160  0.58631452    -0.18800
C753        C  0.49027238  0.27993704  0.77291072    -0.20200
C754        C  0.49186832  0.25819053  0.74552551    -0.08300
C755        C  0.01365588  0.25821628  0.71798474     0.30600
C756        C  0.03357391  0.27961120  0.71811129    -0.20200
C757        C  0.03218870  0.30119100  0.74570119    -0.08300
C758        C  0.01020684  0.30139242  0.77299760     0.30600
F759        F  0.00765019  0.32258703  0.79913151    -0.18800
H760        H  0.47334524  0.28042864  0.79397492     0.18900
H761        H  0.05064743  0.27889062  0.69727954     0.18900
F762        F  0.01643404  0.23695623  0.69200688    -0.18800
C763        C  0.48972216  0.28085870  0.52836151    -0.20200
C764        C  0.99142598  0.25902389  0.00110818    -0.08300
C765        C  0.01393918  0.25838091  0.97465877     0.30600
C766        C  0.03395508  0.27965949  0.97490126    -0.20200
C767        C  0.03202903  0.30180037  0.00160672    -0.08300
C768        C  0.00989085  0.30217479  0.52868245     0.30600
F769        F  0.00723275  0.32357506  0.55447903    -0.18800
H770        H  0.47242374  0.28165442  0.54884864     0.18900
H771        H  0.05128832  0.27866008  0.95449042     0.18900
F772        F  0.01706920  0.23674750  0.94930915    -0.18800
C773        C  0.44681467  0.17113302  0.89309672    -0.20200
C774        C  0.42538022  0.18566069  0.91370897    -0.08300
C775        C  0.40979157  0.20609346  0.89265694     0.30600
C776        C  0.40925463  0.20512942  0.85233358    -0.20200
C777        C  0.42530177  0.18476117  0.83183012    -0.08300
C778        C  0.44719213  0.17109499  0.85278950     0.30600
F779        F  0.47037884  0.16007425  0.83482536    -0.18800
H780        H  0.46437527  0.16114786  0.90797491     0.18900
H781        H  0.39742652  0.22138371  0.83726257     0.18900
F782        F  0.39727705  0.22849570  0.91052601    -0.18800
C783        C  0.44435759  0.16848301  0.64317733    -0.20200
C784        C  0.42322576  0.18338896  0.66382675    -0.08300
C785        C  0.40762019  0.20382964  0.64267693     0.30600
C786        C  0.40718591  0.20300458  0.60234125    -0.20200
C787        C  0.42350054  0.18294245  0.58170890    -0.08300
C788        C  0.44504409  0.16884339  0.60286664     0.30600
F789        F  0.46842534  0.15799610  0.58519781    -0.18800
H790        H  0.46157042  0.15795875  0.65810881     0.18900
H791        H  0.39539923  0.21931494  0.58735235     0.18900
F792        F  0.39516810  0.22633022  0.66038976    -0.18800
C793        C  0.42331396  0.68335853  0.45789844     0.31100
C794        C  0.42231290  0.68189465  0.03737995     0.31100
C795        C  0.43307539  0.65527723  0.47675457    -0.05100
C796        C  0.44139799  0.70487312  0.47884700    -0.05900
C797        C  0.39390722  0.68798408  0.47697542    -0.05800
C798        C  0.43215004  0.65436897  0.01702003    -0.05100
C799        C  0.44100640  0.70418228  0.01874557    -0.05900
C800        C  0.39336795  0.68728385  0.01734432    -0.05800
C801        C  0.44192158  0.62787393  0.02777103    -0.31200
N802        N  0.45024482  0.61365389  0.99585128     0.15300
C803        C  0.44435291  0.62969292  0.46465258    -0.31200
H804        H  0.44872830  0.62300692  0.43554632     0.17300
C805        C  0.45903279  0.72474294  0.03146826    -0.30200
N806        N  0.47038157  0.73754032  0.50029205     0.14000
C807        C  0.45952233  0.72572179  0.46805134    -0.30200
C808        C  0.36648134  0.69607377  0.02844750    -0.30400
N809        N  0.35138006  0.70305643  0.99662307     0.14600
H810        H  0.35904909  0.69972769  0.05740695     0.17200
C811        C  0.36742938  0.69733124  0.46521259    -0.30500
H812        H  0.36057700  0.70154709  0.43614138     0.17200
H813        H  0.46452245  0.73177606  0.43889101     0.17200
H814        H  0.44432502  0.61981152  0.05665019     0.17300
H815        H  0.46416081  0.72950118  0.06107188     0.17200
C816        C  0.42217834  0.68195416  0.20815955     0.31100
C817        C  0.42318800  0.68261281  0.28766384     0.31100
C818        C  0.43109104  0.65389815  0.22791472    -0.05100
C819        C  0.44176258  0.70318222  0.22727846    -0.05900
C820        C  0.39355460  0.68820964  0.22830423    -0.05800
C821        C  0.43163155  0.65428993  0.26825896    -0.05100
C822        C  0.44228763  0.70349837  0.26717715    -0.05900
C823        C  0.39397762  0.68862379  0.26864305    -0.05800
C824        C  0.44222624  0.62837195  0.27990301    -0.31200
N825        N  0.44872243  0.61280336  0.24839779     0.15300
C826        C  0.44120681  0.62760742  0.21662459    -0.31200
H827        H  0.44470579  0.62018506  0.18762509     0.17300
C828        C  0.46085712  0.72398634  0.27826825    -0.30200
N829        N  0.47159064  0.73599696  0.24613947     0.14000
C830        C  0.45995208  0.72353918  0.21484764    -0.30200
C831        C  0.36728976  0.69761338  0.28040107    -0.30400
N832        N  0.35144202  0.70345937  0.24883430     0.14600
H833        H  0.36032533  0.70182113  0.30945392     0.17200
C834        C  0.36677129  0.69685027  0.21713623    -0.30500
H835        H  0.35909564  0.69973105  0.18814287     0.17200
H836        H  0.46403507  0.72918185  0.18526532     0.17200
H837        H  0.44611085  0.62138841  0.30899470     0.17300
H838        H  0.46638314  0.72956943  0.30747062     0.17200
C839        C  0.37257157  0.91980177  0.45855410     0.31100
C840        C  0.37201450  0.92084630  0.03758734     0.31100
C841        C  0.40117671  0.92678044  0.47815092    -0.05100
C842        C  0.35237289  0.94188482  0.47747171    -0.05900
C843        C  0.36401285  0.89210253  0.47832351    -0.05800
C844        C  0.40077099  0.92737623  0.01856026    -0.05100
C845        C  0.35164920  0.94190761  0.01755185    -0.05900
C846        C  0.36320669  0.89277255  0.01850809    -0.05800
C847        C  0.42226993  0.94529155  0.02988518    -0.31200
N848        N  0.43628356  0.95457757  0.49845151     0.15300
C849        C  0.42309798  0.94426981  0.46696955    -0.31200
H850        H  0.42714620  0.95160742  0.43809362     0.17300
C851        C  0.33098794  0.96120808  0.02857082    -0.30200
N852        N  0.31969676  0.97354668  0.49666877     0.14000
C853        C  0.33296985  0.96218329  0.46541489    -0.30200
C854        C  0.34442201  0.87196402  0.02948510    -0.30400
N855        N  0.33587282  0.85746973  0.49803476     0.14600
H856        H  0.33618263  0.86868385  0.05812600     0.17200
C857        C  0.34731343  0.86982271  0.46662884    -0.30500
H858        H  0.34164092  0.86475130  0.43731422     0.17200
H859        H  0.32831540  0.96785693  0.43598861     0.17200
H860        H  0.42595235  0.95283448  0.05880143     0.17300
H861        H  0.32466664  0.96596043  0.05775625     0.17200
C862        C  0.37183585  0.91891150  0.20857316     0.31100
C863        C  0.37259459  0.91889763  0.28763145     0.31100
C864        C  0.40024270  0.92672468  0.22734043    -0.05100
C865        C  0.35079502  0.93957327  0.22847968    -0.05900
C866        C  0.36432179  0.89067121  0.22813763    -0.05800
C867        C  0.40072199  0.92670925  0.26768448    -0.05100
C868        C  0.35156541  0.93994301  0.26855821    -0.05900
C869        C  0.36468395  0.89077237  0.26850196    -0.05800
C870        C  0.42203110  0.94500669  0.27841765    -0.31200
N871        N  0.43498044  0.95501005  0.24668302     0.15300
C872        C  0.42125336  0.94492422  0.21546933    -0.31200
H873        H  0.42489151  0.95195147  0.18633182     0.17300
C874        C  0.33267012  0.96071310  0.28049939    -0.30200
N875        N  0.32000855  0.97252723  0.24912455     0.14000
C876        C  0.33068212  0.95939111  0.21731881    -0.30200
C877        C  0.34670622  0.86960696  0.28037502    -0.30400
N878        N  0.33638812  0.85616265  0.24910924     0.14600
H879        H  0.34001617  0.86562182  0.30958184     0.17200
C880        C  0.34606120  0.86937313  0.21738302    -0.30500
H881        H  0.33811475  0.86553083  0.18869444     0.17200
H882        H  0.32404538  0.96364918  0.18814408     0.17200
H883        H  0.42597491  0.95279143  0.30714118     0.17300
H884        H  0.32891784  0.96727998  0.30985010     0.17200
O885        O  0.47970702  0.97154342  0.47560730    -0.77400
C886        C  0.01959346  0.52798300  0.39287731     0.83600
O887        O  0.07583514  0.98614424  0.02089242    -0.78500
O888        O  0.06351731  0.58194583  0.47569732    -0.80000
O889        O  0.46246584  0.56830102  0.01685833    -0.79800
O890        O  0.45666121  0.99654960  0.02017672    -0.78500
Zn891      Zn  0.01634982  0.99325122  0.46535350     1.55700
O892        O  0.99109421  0.58991763  0.47549593    -0.79900
Cd893      Cd  0.48367715  0.53051798  0.02751196     1.59700
Cd894      Cd  0.05371231  0.52353648  0.02983666     1.59600
O895        O  0.49399773  0.53077013  0.08402934    -0.79800
O896        O  0.01942303  0.52689057  0.49671454    -1.90300
Cd897      Cd  0.02460896  0.56207822  0.46630908     1.59900
O898        O  0.04113225  0.52421438  0.08504555    -0.79800
O899        O  0.02329003  0.55137102  0.40998291    -0.78500
C900        C  0.07161444  0.96656087  0.49657926     0.84100
C901        C  0.45852003  0.97511620  0.49807976     0.83700
O902        O  0.01638414  0.00473996  0.41053684    -0.77400
C903        C  0.46856215  0.58933133  0.99578312     0.84600
O904        O  0.05041645  0.96726508  0.47372322    -0.77500
C905        C  0.01738000  0.52754814  0.10175797     0.84700
C906        C  0.08323043  0.57682635  0.49996614     0.85000
O907        O  0.08177421  0.55623897  0.02329977    -0.79900
O908        O  0.04821414  0.96619744  0.27129102    -0.77400
C909        C  0.01928276  0.52794830  0.35139996     0.83600
O910        O  0.45596386  0.99611893  0.22354789    -0.78500
O911        O  0.99018900  0.58971829  0.26808214    -0.83600
O912        O  0.08224294  0.55385816  0.22268867    -0.79800
O913        O  0.07386198  0.98421739  0.22387886    -0.78500
Zn914      Zn  0.01501882  0.99307966  0.27943805     1.55700
O915        O  0.06336821  0.58131780  0.26813460    -0.79900
Cd916      Cd  0.05303183  0.52221537  0.21529198     1.59700
Cd917      Cd  0.48296243  0.52999805  0.21673654     1.59600
O918        O  0.04079953  0.52364405  0.15999775    -0.79800
O919        O  0.01858321  0.52644006  0.24785546    -1.90300
Cd920      Cd  0.02396658  0.56195318  0.27761593     1.59900
O921        O  0.49369097  0.53055369  0.16040717    -0.79800
O922        O  0.02277395  0.55128678  0.33410335    -0.78500
C923        C  0.45731205  0.97532450  0.24664955     0.84100
C924        C  0.06926474  0.96489713  0.24831056     0.83700
O925        O  0.01577905  0.00465553  0.33394752    -0.77400
C926        C  0.08360809  0.57507154  0.24507567     0.84600
O927        O  0.47810628  0.97213557  0.26981178    -0.77500
C928        C  0.01720392  0.52733111  0.14299341     0.84700
C929        C  0.46736725  0.58870748  0.24833180     0.85000
O930        O  0.46122410  0.56742026  0.22768564    -0.79900
C931        C  0.10749247  0.86987079  0.45809738     0.31100
C932        C  0.10885561  0.87130833  0.03755642     0.31100
C933        C  0.10402790  0.89941431  0.47692159    -0.05100
C934        C  0.08506698  0.85289996  0.47907308    -0.05900
C935        C  0.13530684  0.85902564  0.47722190    -0.05800
C936        C  0.10486841  0.90018147  0.01727596    -0.05100
C937        C  0.08571814  0.85356783  0.01896066    -0.05900
C938        C  0.13609479  0.86002069  0.01749178    -0.05800
C939        C  0.09708487  0.92728598  0.02817406    -0.31200
N940        N  0.09005103  0.94222815  0.49631125     0.15300
C941        C  0.09517827  0.92591624  0.46501090    -0.31200
H942        H  0.09078634  0.93263159  0.43595250     0.17300
C943        C  0.06542947  0.83532588  0.03184554    -0.30200
N944        N  0.05260740  0.82373644  0.50078509     0.14000
C945        C  0.06447136  0.83433844  0.46845259    -0.30200
C946        C  0.16222049  0.84905591  0.02858182    -0.30400
N947        N  0.17644767  0.84031185  0.49682142     0.14600
H948        H  0.17012390  0.84642977  0.05751593     0.17200
C949        C  0.16071325  0.84680101  0.46542756    -0.30500
H950        H  0.16759546  0.84252281  0.43638685     0.17200
H951        H  0.05905158  0.82834618  0.43934830     0.17200
H952        H  0.09402541  0.93499636  0.05712801     0.17300
H953        H  0.06136215  0.82978583  0.06144676     0.17200
C954        C  0.10914387  0.86991335  0.20824365     0.31100
C955        C  0.10846592  0.86927785  0.28776780     0.31100
C956        C  0.10351138  0.89869987  0.22825442    -0.05100
C957        C  0.08728165  0.85109163  0.22740079    -0.05900
C958        C  0.13705242  0.86034826  0.22808709    -0.05800
C959        C  0.10284901  0.89829646  0.26860739    -0.05100
C960        C  0.08699970  0.85073492  0.26730643    -0.05900
C961        C  0.13684844  0.86024002  0.26842974    -0.05800
C962        C  0.09287174  0.92449729  0.28027494    -0.31200
N963        N  0.08727443  0.94033440  0.24878337     0.15300
C964        C  0.09466188  0.92539047  0.21706279    -0.31200
H965        H  0.09149891  0.93296705  0.18812769     0.17300
C966        C  0.06607973  0.83271847  0.27849246    -0.30200
N967        N  0.05366633  0.82222945  0.24643014     0.14000
C968        C  0.06648675  0.83328978  0.21506628    -0.30200
C969        C  0.16296572  0.84952633  0.28000950    -0.30400
N970        N  0.17803338  0.84190155  0.24840035     0.14600
H971        H  0.17008920  0.84589105  0.30912256     0.17200
C972        C  0.16298735  0.84921717  0.21674339    -0.30500
H973        H  0.17041564  0.84576890  0.18773217     0.17200
H974        H  0.06111903  0.82863247  0.18551129     0.17200
H975        H  0.08840260  0.93145692  0.30922481     0.17300
H976        H  0.06085245  0.82704816  0.30772797     0.17200
C977        C  0.18126073  0.61184281  0.03682892     0.31100
C978        C  0.17943926  0.61271772  0.45748023     0.31100
C979        C  0.18791955  0.64048261  0.01751310    -0.05100
C980        C  0.20124349  0.59122628  0.01591328    -0.05900
C981        C  0.15217138  0.60529266  0.01829573    -0.05800
C982        C  0.18715947  0.64095046  0.47726441    -0.05100
C983        C  0.20039316  0.59155973  0.47604636    -0.05900
C984        C  0.15106265  0.60620895  0.47806645    -0.05800
C985        C  0.19434188  0.66804643  0.46609786    -0.31200
N986        N  0.19995142  0.68354908  0.49797239     0.15300
C987        C  0.19524668  0.66727679  0.02928266    -0.31200
H988        H  0.19792991  0.67454079  0.05848969     0.17300
C989        C  0.21977413  0.57143336  0.46340070    -0.30200
N990        N  0.23229726  0.55903317  0.49452000     0.14000
C991        C  0.22093832  0.57099106  0.02667670    -0.30200
C992        C  0.12349751  0.59978094  0.46767539    -0.30400
N993        N  0.10864464  0.59324512  0.49974598     0.14600
H994        H  0.11512053  0.59818498  0.43886444     0.17200
C995        C  0.12565100  0.59716689  0.03072153    -0.30500
H996        H  0.11922511  0.59315171  0.05999219     0.17200
H997        H  0.22682202  0.56560964  0.05586284     0.17200
H998        H  0.19692845  0.67565050  0.43706320     0.17300
H999        H  0.22405872  0.56597369  0.43376459     0.17200
C1000       C  0.18008475  0.61244241  0.28658569     0.31100
C1001       C  0.18138388  0.61109205  0.20725427     0.31100
C1002       C  0.18669576  0.64072451  0.26643629    -0.05100
C1003       C  0.20164945  0.59198313  0.26805253    -0.05900
C1004       C  0.15183995  0.60464016  0.26642001    -0.05800
C1005       C  0.18739570  0.64019672  0.22618943    -0.05100
C1006       C  0.20225275  0.59124190  0.22821346    -0.05900
C1007       C  0.15258324  0.60381832  0.22618899    -0.05800
C1008       C  0.19500481  0.66712387  0.21447008    -0.31200
N1009       N  0.19960283  0.68333036  0.24603481     0.15300
C1010       C  0.19392998  0.66766321  0.27763394    -0.31200
H1011       H  0.19626213  0.67525364  0.30676078     0.17300
C1012       C  0.22276775  0.57164706  0.21776032    -0.30200
N1013       N  0.23476189  0.56046671  0.25009176     0.14000
C1014       C  0.22201817  0.57304688  0.28096195    -0.30200
C1015       C  0.12591928  0.59561985  0.21414986    -0.30400
N1016       N  0.10931785  0.59112726  0.24534570     0.14600
H1017       H  0.11900319  0.59235005  0.18488964     0.17200
C1018       C  0.12453081  0.59740818  0.27725084    -0.30500
H1019       H  0.11643673  0.59544472  0.30614809     0.17200
H1020       H  0.22739138  0.56926501  0.31072506     0.17200
H1021       H  0.19871696  0.67414373  0.18540770     0.17300
H1022       H  0.22818746  0.56569403  0.18862017     0.17200
O1023       O  0.24003800  0.76927609  0.41208806    -0.77400
C1024       C  0.21634734  0.70888926  0.49873344     0.83600
O1025       O  0.22228021  0.82912346  0.01814235    -0.78500
O1026       O  0.26717833  0.75042693  0.08594936    -0.80000
O1027       O  0.32622781  0.74215344  0.47332083    -0.79800
O1028       O  0.28695083  0.77614185  0.41029233    -0.78500
Zn1029     Zn  0.22945111  0.76768703  0.46712886     1.55700
O1030       O  0.30734577  0.71760565  0.02119219    -0.79900
Cd1031     Cd  0.29877466  0.77629243  0.46591905     1.59700
Cd1032     Cd  0.26052294  0.80825348  0.02869588     1.59600
O1033       O  0.32032734  0.81383944  0.47507099    -0.79800
O1034       O  0.26382106  0.77278393  0.49750879    -1.90300
Cd1035     Cd  0.26897758  0.73861482  0.03015165     1.59900
O1036       O  0.29460821  0.83555095  0.02026339    -0.79800
O1037       O  0.23720924  0.70994041  0.02188212    -0.78500
C1038       C  0.20130806  0.82252158  0.49697198     0.84100
C1039       C  0.26313384  0.77286821  0.39404863     0.83700
O1040       O  0.21069403  0.72917771  0.47571537    -0.77400
C1041       C  0.32697894  0.72146938  0.99672807     0.84600
O1042       O  0.20143935  0.79998457  0.47674617    -0.77500
C1043       C  0.31600487  0.83464768  0.99773663     0.84700
C1044       C  0.26326111  0.77393003  0.10283302     0.85000
O1045       O  0.26014079  0.79736066  0.08544093    -0.79900
O1046       O  0.21037169  0.72938073  0.22479411    -0.77400
C1047       C  0.20238816  0.82344211  0.24850622     0.83600
O1048       O  0.28739229  0.77590673  0.16041108    -0.78500
O1049       O  0.29524334  0.83460110  0.27185490    -0.80000
O1050       O  0.26509244  0.74920974  0.33606143    -0.79800
O1051       O  0.23729168  0.70913734  0.26981121    -0.78500
Zn1052     Zn  0.22940120  0.76824377  0.21707573     1.55700
O1053       O  0.26119111  0.79643783  0.33587522    -0.79900
Cd1054     Cd  0.26838977  0.73808083  0.28014893     1.59700
Cd1055     Cd  0.29862285  0.77576275  0.21631863     1.59600
O1056       O  0.30729581  0.71782726  0.27309857    -0.79800
O1057       O  0.26369482  0.77245941  0.24776007    -1.90300
Cd1058     Cd  0.26113620  0.80763970  0.27959301     1.59900
O1059       O  0.32590047  0.74178946  0.22446837    -0.79800
O1060       O  0.22342018  0.82935685  0.26989351    -0.78500
C1061       C  0.26350618  0.77387676  0.14393912     0.84100
C1062       C  0.21624467  0.70855829  0.24693564     0.83700
O1063       O  0.20204745  0.80108653  0.22784910    -0.77400
C1064       C  0.26271155  0.77283783  0.35306097     0.84600
O1065       O  0.24022036  0.77096053  0.16186421    -0.77500
C1066       C  0.32689379  0.72157713  0.24857988     0.84700
C1067       C  0.31641371  0.83356895  0.24907420     0.85000
O1068       O  0.32031628  0.81295357  0.22600367    -0.79900
C1069       C  0.20083126  0.62664285  0.39258681    -0.20200
C1070       C  0.18011396  0.61171608  0.41316378    -0.08300
C1071       C  0.16445561  0.59181692  0.39190288     0.30600
C1072       C  0.16451625  0.59225053  0.35159228    -0.20200
C1073       C  0.18089821  0.61171406  0.33093861    -0.08300
C1074       C  0.20169411  0.62617925  0.35224775     0.30600
F1075       F  0.22424763  0.63795785  0.33453174    -0.18800
H1076       H  0.21741491  0.63763415  0.40767864     0.18900
H1077       H  0.15300821  0.57599568  0.33671276     0.18900
F1078       F  0.15117362  0.57020716  0.40956688    -0.18800
C1079       C  0.16888804  0.58896970  0.10144042    -0.20200
C1080       C  0.18357064  0.60988316  0.08103570    -0.08300
C1081       C  0.20396646  0.62500788  0.10224265     0.30600
C1082       C  0.20339749  0.62507108  0.14258293    -0.20200
C1083       C  0.18348463  0.60907396  0.16304970    -0.08300
C1084       C  0.16934062  0.58808717  0.14177515     0.30600
F1085       F  0.15779735  0.56550337  0.15949419    -0.18800
H1086       H  0.15792033  0.57247142  0.08621949     0.18900
H1087       H  0.21953301  0.63666861  0.15769301     0.18900
F1088       F  0.22598296  0.63769767  0.08449495    -0.18800
C1089       C  0.11937181  0.84604920  0.39340945    -0.20200
C1090       C  0.10515494  0.86771081  0.41389203    -0.08300
C1091       C  0.08498110  0.88358568  0.39266331     0.30600
C1092       C  0.08581957  0.88368853  0.35232784    -0.20200
C1093       C  0.10616190  0.86743430  0.33196848    -0.08300
C1094       C  0.11957778  0.84559313  0.35310042     0.30600
F1095       F  0.13044632  0.82236904  0.33525771    -0.18800
H1096       H  0.12894538  0.82839410  0.40834456     0.18900
H1097       H  0.06942047  0.89529027  0.33720930     0.18900
F1098       F  0.06290092  0.89690398  0.41037218    -0.18800
C1099       C  0.12174169  0.84840976  0.10213794    -0.20200
C1100       C  0.10763928  0.87021027  0.08185150    -0.08300
C1101       C  0.08757120  0.88621853  0.10318077     0.30600
C1102       C  0.08795722  0.88581314  0.14351973    -0.20200
C1103       C  0.10764365  0.86885763  0.16391348    -0.08300
C1104       C  0.12125911  0.84729477  0.14239496     0.30600
F1105       F  0.13144463  0.82357066  0.15963194    -0.18800
H1106       H  0.13160434  0.83095583  0.08696609     0.18900
H1107       H  0.07159333  0.89755033  0.15858636     0.18900
F1108       F  0.06584738  0.90008907  0.08549147    -0.18800
C1109       C  0.27986628  0.99775650  0.28057010    -0.20200
C1110       C  0.29901651  0.49518083  0.24973319    -0.08300
C1111       C  0.29727359  0.51517263  0.21983508     0.30600
C1112       C  0.27649249  0.53662764  0.22052688    -0.20200
C1113       C  0.25691940  0.53888871  0.25094112    -0.08300
C1114       C  0.25907252  0.51923832  0.28129609     0.30600
F1115       F  0.24046747  0.51988867  0.31101270    -0.18800
H1116       H  0.28051289  0.98262075  0.30384142     0.18900
H1117       H  0.27592176  0.55173725  0.19723614     0.18900
F1118       F  0.31609050  0.51458414  0.19034818    -0.18800
C1119       C  0.29704417  0.51580641  0.46733544    -0.20200
C1120       C  0.29729673  0.49479111  0.49586937    -0.08300
C1121       C  0.27526544  0.99493570  0.02328999     0.30600
C1122       C  0.25397893  0.51588622  0.02240243    -0.20200
C1123       C  0.25390082  0.53703606  0.49410510    -0.08300
C1124       C  0.27565739  0.53669863  0.46637975     0.30600
F1125       F  0.27697160  0.55719842  0.43928639    -0.18800
H1126       H  0.31383855  0.51643395  0.44615185     0.18900
H1127       H  0.23724600  0.51539703  0.04369417     0.18900
F1128       F  0.27370538  0.97440735  0.05032157    -0.18800
C1129       C  0.39752264  0.91254002  0.39354049    -0.20200
C1130       C  0.37235602  0.91807207  0.41425222    -0.08300
C1131       C  0.34677476  0.91895811  0.39302868     0.30600
C1132       C  0.34711939  0.91918779  0.35266989    -0.20200
C1133       C  0.37279773  0.91764997  0.33196060    -0.08300
C1134       C  0.39777481  0.91182551  0.35326858     0.30600
F1135       F  0.42228433  0.90379884  0.33565902    -0.18800
H1136       H  0.41713743  0.90766519  0.40842407     0.18900
H1137       H  0.32704842  0.92015885  0.33753993     0.18900
F1138       F  0.32126387  0.91879824  0.41108853    -0.18800
C1139       C  0.37859676  0.89548622  0.10209509    -0.20200
C1140       C  0.37306078  0.92076764  0.08191856    -0.08300
C1141       C  0.37203716  0.94594450  0.10372628     0.30600
C1142       C  0.37142220  0.94507229  0.14408550    -0.20200
C1143       C  0.37287960  0.91925457  0.16421056    -0.08300
C1144       C  0.37904073  0.89471865  0.14235240     0.30600
F1145       F  0.38726894  0.87019761  0.15942777    -0.18800
H1146       H  0.38354020  0.87614594  0.08673537     0.18900
H1147       H  0.37049569  0.96485997  0.15968061     0.18900
F1148       F  0.37280847  0.97153162  0.08631452    -0.18800
C1149       C  0.49027256  0.77993687  0.27291057    -0.20200
C1150       C  0.49186840  0.75819044  0.24552520    -0.08300
C1151       C  0.01365581  0.75821626  0.21798429     0.30600
C1152       C  0.03357393  0.77961110  0.21811091    -0.20200
C1153       C  0.03218888  0.80119076  0.24570104    -0.08300
C1154       C  0.01020709  0.80139214  0.27299753     0.30600
F1155       F  0.00765056  0.82258666  0.29913160    -0.18800
H1156       H  0.47334552  0.78042847  0.29397476     0.18900
H1157       H  0.05064734  0.77889057  0.19727908     0.18900
F1158       F  0.01643378  0.73695636  0.19200616    -0.18800
C1159       C  0.48972206  0.78085883  0.02836147    -0.20200
C1160       C  0.99142594  0.75902394  0.50110822    -0.08300
C1161       C  0.01393933  0.75838073  0.47465910     0.30600
C1162       C  0.03395521  0.77965932  0.47490156    -0.20200
C1163       C  0.03202898  0.80180040  0.50160666    -0.08300
C1164       C  0.00989074  0.80217491  0.02868241     0.30600
F1165       F  0.00723258  0.82357531  0.05447877    -0.18800
H1166       H  0.47242351  0.78165466  0.04884853     0.18900
H1167       H  0.05128866  0.77865975  0.45449090     0.18900
F1168       F  0.01706952  0.73674710  0.44930987    -0.18800
C1169       C  0.44681471  0.67113320  0.39309664    -0.20200
C1170       C  0.42538024  0.68566085  0.41370888    -0.08300
C1171       C  0.40979157  0.70609361  0.39265685     0.30600
C1172       C  0.40925458  0.70512960  0.35233346    -0.20200
C1173       C  0.42530175  0.68476131  0.33183004    -0.08300
C1174       C  0.44719214  0.67109516  0.35278942     0.30600
F1175       F  0.47037885  0.66007445  0.33482526    -0.18800
H1176       H  0.46437530  0.66114809  0.40797480     0.18900
H1177       H  0.39742656  0.72138376  0.33726258     0.18900
F1178       F  0.39727704  0.72849583  0.41052593    -0.18800
C1179       C  0.44435747  0.66848300  0.14317732    -0.20200
C1180       C  0.42322557  0.68338894  0.16382669    -0.08300
C1181       C  0.40761997  0.70382959  0.14267686     0.30600
C1182       C  0.40718571  0.70300456  0.10234117    -0.20200
C1183       C  0.42350041  0.68294247  0.08170883    -0.08300
C1184       C  0.44504396  0.66884343  0.10286659     0.30600
F1185       F  0.46842525  0.65799622  0.08519778    -0.18800
H1186       H  0.46157019  0.65795884  0.15810869     0.18900
H1187       H  0.39539905  0.71931488  0.08735231     0.18900
F1188       F  0.39516786  0.72633016  0.16038967    -0.18800
C1189       C  0.42331391  0.68335847  0.95789844     0.31100
C1190       C  0.42231295  0.68189470  0.53737994     0.31100
C1191       C  0.43307538  0.65527719  0.97675458    -0.05100
C1192       C  0.44139792  0.70487308  0.97884698    -0.05900
C1193       C  0.39390717  0.68798398  0.97697541    -0.05800
C1194       C  0.43215005  0.65436901  0.51702001    -0.05100
C1195       C  0.44100649  0.70418233  0.51874559    -0.05900
C1196       C  0.39336801  0.68728395  0.51734433    -0.05800
C1197       C  0.44192157  0.62787396  0.52777101    -0.31200
N1198       N  0.45024481  0.61365391  0.49585128     0.15300
C1199       C  0.44435288  0.62969289  0.96465263    -0.31200
H1200       H  0.44872826  0.62300686  0.93554622     0.17300
C1201       C  0.45903289  0.72474301  0.53146838    -0.30200
N1202       N  0.47038148  0.73754029  0.00029205     0.14000
C1203       C  0.45952225  0.72572176  0.96805129    -0.30200
C1204       C  0.36648139  0.69607385  0.52844755    -0.30400
N1205       N  0.35138010  0.70305651  0.49662311     0.14600
H1206       H  0.35904916  0.69972773  0.55740693     0.17200
C1207       C  0.36742934  0.69733113  0.96521256    -0.30500
H1208       H  0.36057697  0.70154696  0.93614134     0.17200
H1209       H  0.46452236  0.73177602  0.93889106     0.17200
H1210       H  0.44432500  0.61981155  0.55665018     0.17300
H1211       H  0.46416084  0.72950122  0.56107161     0.17200
C1212       C  0.42217834  0.68195412  0.70815952     0.31100
C1213       C  0.42318795  0.68261276  0.78766382     0.31100
C1214       C  0.43109103  0.65389811  0.72791470    -0.05100
C1215       C  0.44176256  0.70318217  0.72727848    -0.05900
C1216       C  0.39355458  0.68820959  0.72830415    -0.05800
C1217       C  0.43163152  0.65428989  0.76825895    -0.05100
C1218       C  0.44228759  0.70349833  0.76717718    -0.05900
C1219       C  0.39397758  0.68862374  0.76864297    -0.05800
C1220       C  0.44222623  0.62837192  0.77990303    -0.31200
N1221       N  0.44872245  0.61280334  0.74839779     0.15300
C1222       C  0.44120684  0.62760741  0.71662461    -0.31200
H1223       H  0.44470586  0.62018502  0.68762501     0.17300
C1224       C  0.46085711  0.72398629  0.77826837    -0.30200
N1225       N  0.47159065  0.73599686  0.74613952     0.14000
C1226       C  0.45995209  0.72353909  0.71484776    -0.30200
C1227       C  0.36728975  0.69761335  0.78040088    -0.30400
N1228       N  0.35144202  0.70345939  0.74883417     0.14600
H1229       H  0.36032526  0.70182114  0.80945400     0.17200
C1230       C  0.36677129  0.69685029  0.71713609    -0.30500
H1231       H  0.35909568  0.69973110  0.68814281     0.17200
H1232       H  0.46403516  0.72918178  0.68526516     0.17200
H1233       H  0.44611083  0.62138840  0.80899463     0.17300
H1234       H  0.46638307  0.72956933  0.80747047     0.17200
C1235       C  0.37257155  0.91980177  0.95855410     0.31100
C1236       C  0.37201448  0.92084633  0.53758735     0.31100
C1237       C  0.40117667  0.92678049  0.97815091    -0.05100
C1238       C  0.35237282  0.94188476  0.97747174    -0.05900
C1239       C  0.36401290  0.89210250  0.97832349    -0.05800
C1240       C  0.40077100  0.92737618  0.51856027    -0.05100
C1241       C  0.35164925  0.94190768  0.51755183    -0.05900
C1242       C  0.36320663  0.89277259  0.51850811    -0.05800
C1243       C  0.42226991  0.94529147  0.52988509    -0.31200
N1244       N  0.43628353  0.95457761  0.99845145     0.15300
C1245       C  0.42309793  0.94426985  0.96696956    -0.31200
H1246       H  0.42714615  0.95160747  0.93809347     0.17300
C1247       C  0.33098799  0.96120816  0.52857073    -0.30200
N1248       N  0.31969668  0.97354661  0.99666886     0.14000
C1249       C  0.33296976  0.96218323  0.96541497    -0.30200
C1250       C  0.34442197  0.87196402  0.52948521    -0.30400
N1251       N  0.33587282  0.85746973  0.99803473     0.14600
H1252       H  0.33618269  0.86868387  0.55812582     0.17200
C1253       C  0.34731344  0.86982271  0.96662883    -0.30500
H1254       H  0.34164090  0.86475129  0.93731411     0.17200
H1255       H  0.32831529  0.96785690  0.93598867     0.17200
H1256       H  0.42595235  0.95283454  0.55880183     0.17300
H1257       H  0.32466666  0.96596053  0.55775622     0.17200
C1258       C  0.37183593  0.91891151  0.70857319     0.31100
C1259       C  0.37259466  0.91889760  0.78763147     0.31100
C1260       C  0.40024279  0.92672466  0.72734050    -0.05100
C1261       C  0.35079512  0.93957329  0.72847971    -0.05900
C1262       C  0.36432182  0.89067122  0.72813759    -0.05800
C1263       C  0.40072207  0.92670922  0.76768455    -0.05100
C1264       C  0.35156550  0.93994300  0.76855824    -0.05900
C1265       C  0.36468399  0.89077236  0.76850192    -0.05800
C1266       C  0.42203120  0.94500667  0.77841779    -0.31200
N1267       N  0.43498053  0.95501003  0.74668312     0.15300
C1268       C  0.42125343  0.94492421  0.71546944    -0.31200
H1269       H  0.42489158  0.95195149  0.68633189     0.17300
C1270       C  0.33267018  0.96071305  0.78049938    -0.30200
N1271       N  0.32000861  0.97252720  0.74912461     0.14000
C1272       C  0.33068221  0.95939112  0.71731884    -0.30200
C1273       C  0.34670624  0.86960699  0.78037481    -0.30400
N1274       N  0.33638810  0.85616269  0.74910915     0.14600
H1275       H  0.34001609  0.86562179  0.80958210     0.17200
C1276       C  0.34606119  0.86937315  0.71738282    -0.30500
H1277       H  0.33811486  0.86553090  0.68869463     0.17200
H1278       H  0.32404547  0.96364921  0.68814418     0.17200
H1279       H  0.42597499  0.95279135  0.80714115     0.17300
H1280       H  0.32891783  0.96727994  0.80985036     0.17200
O1281       O  0.47970699  0.97154346  0.97560717    -0.77400
C1282       C  0.01959346  0.52798304  0.89287733     0.83600
O1283       O  0.07583517  0.98614423  0.52089250    -0.78500
O1284       O  0.06351725  0.58194588  0.97569741    -0.80000
O1285       O  0.46246585  0.56830106  0.51685839    -0.79800
O1286       O  0.45666121  0.99654958  0.52017679    -0.78500
Zn1287     Zn  0.01634978  0.99325124  0.96535348     1.55700
O1288       O  0.99109419  0.58991765  0.97549590    -0.79900
Cd1289     Cd  0.48367715  0.53051799  0.52751200     1.59700
Cd1290     Cd  0.05371233  0.52353648  0.52983670     1.59600
O1291       O  0.49399775  0.53077011  0.58402938    -0.79800
O1292       O  0.01942301  0.52689058  0.99671452    -1.90300
Cd1293     Cd  0.02460893  0.56207824  0.96630909     1.59900
O1294       O  0.04113229  0.52421444  0.58504561    -0.79800
O1295       O  0.02329005  0.55137105  0.90998293    -0.78500
C1296       C  0.07161440  0.96656086  0.99657920     0.84100
C1297       C  0.45852001  0.97511624  0.99807968     0.83700
O1298       O  0.01638411  0.00473999  0.91053685    -0.77400
C1299       C  0.46856215  0.58933135  0.49578313     0.84600
O1300       O  0.05041639  0.96726506  0.97372320    -0.77500
C1301       C  0.01738004  0.52754815  0.60175803     0.84700
C1302       C  0.08323037  0.57682642  0.99996624     0.85000
O1303       O  0.08177425  0.55623894  0.52329971    -0.79900
O1304       O  0.04821423  0.96619748  0.77129106    -0.77400
C1305       C  0.01928276  0.52794834  0.85139998     0.83600
O1306       O  0.45596394  0.99611890  0.72354797    -0.78500
O1307       O  0.99018900  0.58971831  0.76808217    -0.83600
O1308       O  0.08224294  0.55385817  0.72268871    -0.79800
O1309       O  0.07386201  0.98421741  0.72387883    -0.78500
Zn1310     Zn  0.01501888  0.99307968  0.77943809     1.55700
O1311       O  0.06336822  0.58131781  0.76813466    -0.79900
Cd1312     Cd  0.05303184  0.52221539  0.71529205     1.59700
Cd1313     Cd  0.48296244  0.52999803  0.71673660     1.59600
O1314       O  0.04079956  0.52364407  0.65999782    -0.79800
O1315       O  0.01858322  0.52644007  0.74785551    -1.90300
Cd1316     Cd  0.02396658  0.56195320  0.77761596     1.59900
O1317       O  0.49369099  0.53055365  0.66040722    -0.79800
O1318       O  0.02277393  0.55128682  0.83410338    -0.78500
C1319       C  0.45731213  0.97532449  0.74664966     0.84100
C1320       C  0.06926482  0.96489717  0.74831054     0.83700
O1321       O  0.01577907  0.00465556  0.83394756    -0.77400
C1322       C  0.08360809  0.57507155  0.74507572     0.84600
O1323       O  0.47810634  0.97213559  0.76981191    -0.77500
C1324       C  0.01720394  0.52733111  0.64299347     0.84700
C1325       C  0.46736729  0.58870748  0.74833183     0.85000
O1326       O  0.46122414  0.56742025  0.72768568    -0.79900
C1327       C  0.10749245  0.86987078  0.95809737     0.31100
C1328       C  0.10885560  0.87130832  0.53755641     0.31100
C1329       C  0.10402789  0.89941430  0.97692157    -0.05100
C1330       C  0.08506697  0.85289996  0.97907309    -0.05900
C1331       C  0.13530682  0.85902563  0.97722190    -0.05800
C1332       C  0.10486841  0.90018147  0.51727598    -0.05100
C1333       C  0.08571812  0.85356782  0.51896064    -0.05900
C1334       C  0.13609479  0.86002068  0.51749178    -0.05800
C1335       C  0.09708491  0.92728602  0.52817417    -0.31200
N1336       N  0.09005099  0.94222814  0.99631122     0.15300
C1337       C  0.09517825  0.92591621  0.96501091    -0.31200
H1338       H  0.09078629  0.93263160  0.93595233     0.17300
C1339       C  0.06542946  0.83532587  0.53184552    -0.30200
N1340       N  0.05260739  0.82373646  0.00078513     0.14000
C1341       C  0.06447134  0.83433846  0.96845262    -0.30200
C1342       C  0.16222049  0.84905590  0.52858187    -0.30400
N1343       N  0.17644766  0.84031184  0.99682139     0.14600
H1344       H  0.17012384  0.84642975  0.55751586     0.17200
C1345       C  0.16071319  0.84680100  0.96542764    -0.30500
H1346       H  0.16759545  0.84252274  0.93638653     0.17200
H1347       H  0.05905155  0.82834622  0.93934833     0.17200
H1348       H  0.09402551  0.93499633  0.55712780     0.17300
H1349       H  0.06136213  0.82978581  0.56144672     0.17200
C1350       C  0.10914381  0.86991334  0.70824363     0.31100
C1351       C  0.10846589  0.86927787  0.78776779     0.31100
C1352       C  0.10351139  0.89869988  0.72825438    -0.05100
C1353       C  0.08728157  0.85109167  0.72740081    -0.05900
C1354       C  0.13705235  0.86034821  0.72808705    -0.05800
C1355       C  0.10284904  0.89829648  0.76860735    -0.05100
C1356       C  0.08699961  0.85073498  0.76730645    -0.05900
C1357       C  0.13684837  0.86023998  0.76842971    -0.05800
C1358       C  0.09287182  0.92449730  0.78027479    -0.31200
N1359       N  0.08727449  0.94033443  0.74878334     0.15300
C1360       C  0.09466190  0.92539049  0.71706271    -0.31200
H1361       H  0.09149893  0.93296704  0.68812775     0.17300
C1362       C  0.06607962  0.83271860  0.77849243    -0.30200
N1363       N  0.05366623  0.82222955  0.74643019     0.14000
C1364       C  0.06648668  0.83328984  0.71506639    -0.30200
C1365       C  0.16296565  0.84952633  0.78000938    -0.30400
N1366       N  0.17803332  0.84190153  0.74840031     0.14600
H1367       H  0.17008921  0.84589105  0.80912275     0.17200
C1368       C  0.16298728  0.84921711  0.71674330    -0.30500
H1369       H  0.17041553  0.84576884  0.68773225     0.17200
H1370       H  0.06111894  0.82863244  0.68551113     0.17200
H1371       H  0.08840265  0.93145701  0.80922508     0.17300
H1372       H  0.06085225  0.82704826  0.80772826     0.17200
C1373       C  0.18126080  0.61184269  0.53682889     0.31100
C1374       C  0.17943917  0.61271779  0.95748028     0.31100
C1375       C  0.18791960  0.64048251  0.51751310    -0.05100
C1376       C  0.20124358  0.59122620  0.51591322    -0.05900
C1377       C  0.15217146  0.60529253  0.51829566    -0.05800
C1378       C  0.18715941  0.64095055  0.97726441    -0.05100
C1379       C  0.20039306  0.59155979  0.97604643    -0.05900
C1380       C  0.15106255  0.60620906  0.97806652    -0.05800
C1381       C  0.19434184  0.66804652  0.96609778    -0.31200
N1382       N  0.19995140  0.68354916  0.99797236     0.15300
C1383       C  0.19524671  0.66727670  0.52928271    -0.31200
H1384       H  0.19792993  0.67454068  0.55848966     0.17300
C1385       C  0.21977403  0.57143341  0.96340078    -0.30200
N1386       N  0.23229717  0.55903324  0.99452009     0.14000
C1387       C  0.22093840  0.57099096  0.52667661    -0.30200
C1388       C  0.12349742  0.59978104  0.96767549    -0.30400
N1389       N  0.10864456  0.59324522  0.99974609     0.14600
H1390       H  0.11512043  0.59818506  0.93886452     0.17200
C1391       C  0.12565108  0.59716677  0.53072144    -0.30500
H1392       H  0.11922517  0.59315159  0.55999207     0.17200
H1393       H  0.22682209  0.56560951  0.55586279     0.17200
H1394       H  0.19692839  0.67565053  0.93706333     0.17300
H1395       H  0.22405861  0.56597373  0.93376468     0.17200
C1396       C  0.18008478  0.61244234  0.78658573     0.31100
C1397       C  0.18138390  0.61109198  0.70725429     0.31100
C1398       C  0.18669576  0.64072444  0.76643632    -0.05100
C1399       C  0.20164949  0.59198308  0.76805254    -0.05900
C1400       C  0.15183998  0.60464008  0.76642008    -0.05800
C1401       C  0.18739571  0.64019666  0.72618946    -0.05100
C1402       C  0.20225279  0.59124185  0.72821347    -0.05900
C1403       C  0.15258327  0.60381824  0.72618905    -0.05800
C1404       C  0.19500481  0.66712381  0.71447013    -0.31200
N1405       N  0.19960283  0.68333030  0.74603484     0.15300
C1406       C  0.19392999  0.66766315  0.77763398    -0.31200
H1407       H  0.19626214  0.67525359  0.80676082     0.17300
C1408       C  0.22276780  0.57164701  0.71776026    -0.30200
N1409       N  0.23476193  0.56046667  0.75009175     0.14000
C1410       C  0.22201820  0.57304684  0.78096187    -0.30200
C1411       C  0.12591930  0.59561982  0.71414994    -0.30400
N1412       N  0.10931786  0.59112725  0.74534575     0.14600
H1413       H  0.11900320  0.59235004  0.68488969     0.17200
C1414       C  0.12453081  0.59740813  0.77725098    -0.30500
H1415       H  0.11643679  0.59544469  0.80614795     0.17200
H1416       H  0.22739146  0.56926491  0.81072527     0.17200
H1417       H  0.19871696  0.67414368  0.68540770     0.17300
H1418       H  0.22818747  0.56569400  0.68862027     0.17200
O1419       O  0.24003806  0.76927608  0.91208798    -0.77400
C1420       C  0.21634734  0.70888932  0.99873339     0.83600
O1421       O  0.22228023  0.82912349  0.51814233    -0.78500
O1422       O  0.26717822  0.75042691  0.58594938    -0.80000
O1423       O  0.32622783  0.74215339  0.97332078    -0.79800
O1424       O  0.28695088  0.77614186  0.91029224    -0.78500
Zn1425     Zn  0.22945116  0.76768704  0.96712877     1.55700
O1426       O  0.30734580  0.71760568  0.52119226    -0.79900
Cd1427     Cd  0.29877470  0.77629242  0.96591898     1.59700
Cd1428     Cd  0.26052293  0.80825349  0.52869591     1.59600
O1429       O  0.32032736  0.81383943  0.97507098    -0.79800
O1430       O  0.26382109  0.77278394  0.99750873    -1.90300
Cd1431     Cd  0.26897756  0.73861480  0.53015169     1.59900
O1432       O  0.29460823  0.83555094  0.52026345    -0.79800
O1433       O  0.23720924  0.70994036  0.52188214    -0.78500
C1434       C  0.20130807  0.82252158  0.99697194     0.84100
C1435       C  0.26313390  0.77286821  0.89404854     0.83700
O1436       O  0.21069406  0.72917775  0.97571530    -0.77400
C1437       C  0.32697896  0.72146943  0.49672814     0.84600
O1438       O  0.20143940  0.79998459  0.97674606    -0.77500
C1439       C  0.31600486  0.83464768  0.49773667     0.84700
C1440       C  0.26326100  0.77393002  0.60283303     0.85000
O1441       O  0.26014073  0.79736066  0.58544094    -0.79900
O1442       O  0.21037163  0.72938070  0.72479418    -0.77400
C1443       C  0.20238810  0.82344209  0.74850618     0.83600
O1444       O  0.28739219  0.77590676  0.66041106    -0.78500
O1445       O  0.29524331  0.83460114  0.77185480    -0.80000
O1446       O  0.26509248  0.74920974  0.83606134    -0.79800
O1447       O  0.23729171  0.70913728  0.76981116    -0.78500
Zn1448     Zn  0.22940113  0.76824374  0.71707574     1.55700
O1449       O  0.26119114  0.79643783  0.83587513    -0.79900
Cd1450     Cd  0.26838977  0.73808082  0.78014885     1.59700
Cd1451     Cd  0.29862282  0.77576277  0.71631856     1.59600
O1452       O  0.30729582  0.71782729  0.77309848    -0.79800
O1453       O  0.26369479  0.77245942  0.74776001    -1.90300
Cd1454     Cd  0.26113619  0.80763971  0.77959293     1.59900
O1455       O  0.32590045  0.74178947  0.72446824    -0.79800
O1456       O  0.22342014  0.82935687  0.76989345    -0.78500
C1457       C  0.26350607  0.77387675  0.64393912     0.84100
C1458       C  0.21624467  0.70855824  0.74693566     0.83700
O1459       O  0.20204740  0.80108650  0.72784912    -0.77400
C1460       C  0.26271159  0.77283783  0.85306088     0.84600
O1461       O  0.24022026  0.77096047  0.66186422    -0.77500
C1462       C  0.32689378  0.72157716  0.74857975     0.84700
C1463       C  0.31641370  0.83356898  0.74907407     0.85000
O1464       O  0.32031625  0.81295361  0.72600357    -0.79900
C1465       C  0.20083118  0.62664285  0.89258685    -0.20200
C1466       C  0.18011387  0.61171612  0.91316384    -0.08300
C1467       C  0.16445554  0.59181694  0.89190296     0.30600
C1468       C  0.16451625  0.59225053  0.85159236    -0.20200
C1469       C  0.18089822  0.61171401  0.83093866    -0.08300
C1470       C  0.20169410  0.62617921  0.85224781     0.30600
F1471       F  0.22424763  0.63795779  0.83453182    -0.18800
H1472       H  0.21741490  0.63763421  0.90767875     0.18900
H1473       H  0.15300816  0.57599558  0.83671277     0.18900
F1474       F  0.15117349  0.57020723  0.90956697    -0.18800
C1475       C  0.16888803  0.58896957  0.60144038    -0.20200
C1476       C  0.18357069  0.60988303  0.58103567    -0.08300
C1477       C  0.20396649  0.62500777  0.60224264     0.30600
C1478       C  0.20339750  0.62507099  0.64258291    -0.20200
C1479       C  0.18348465  0.60907388  0.66304970    -0.08300
C1480       C  0.16934062  0.58808710  0.64177515     0.30600
F1481       F  0.15779733  0.56550333  0.65949422    -0.18800
H1482       H  0.15792040  0.57247140  0.58621956     0.18900
H1483       H  0.21953303  0.63666855  0.65769301     0.18900
F1484       F  0.22598300  0.63769754  0.58449495    -0.18800
C1485       C  0.11937176  0.84604925  0.89340939    -0.20200
C1486       C  0.10515491  0.86771081  0.91389202    -0.08300
C1487       C  0.08498107  0.88358570  0.89266331     0.30600
C1488       C  0.08581955  0.88368858  0.85232783    -0.20200
C1489       C  0.10616187  0.86743433  0.83196847    -0.08300
C1490       C  0.11957774  0.84559315  0.85310039     0.30600
F1491       F  0.13044627  0.82236905  0.83525768    -0.18800
H1492       H  0.12894539  0.82839401  0.90834462     0.18900
H1493       H  0.06942049  0.89529034  0.83720932     0.18900
F1494       F  0.06290090  0.89690397  0.91037220    -0.18800
C1495       C  0.12174166  0.84840965  0.60213788    -0.20200
C1496       C  0.10763926  0.87021024  0.58185149    -0.08300
C1497       C  0.08757120  0.88621853  0.60318076     0.30600
C1498       C  0.08795718  0.88581315  0.64351973    -0.20200
C1499       C  0.10764359  0.86885759  0.66391346    -0.08300
C1500       C  0.12125904  0.84729471  0.64239494     0.30600
F1501       F  0.13144451  0.82357059  0.65963194    -0.18800
H1502       H  0.13160417  0.83095590  0.58696621     0.18900
H1503       H  0.07159337  0.89755032  0.65858628     0.18900
F1504       F  0.06584741  0.90008912  0.58549146    -0.18800
C1505       C  0.27986614  0.99775628  0.78056997    -0.20200
C1506       C  0.29901650  0.49518074  0.74973315    -0.08300
C1507       C  0.29727361  0.51517257  0.71983509     0.30600
C1508       C  0.27649253  0.53662760  0.72052687    -0.20200
C1509       C  0.25691942  0.53888865  0.75094110    -0.08300
C1510       C  0.25907248  0.51923821  0.78129603     0.30600
F1511       F  0.24046740  0.51988855  0.81101261    -0.18800
H1512       H  0.28051266  0.98262036  0.80384126     0.18900
H1513       H  0.27592184  0.55173719  0.69723624     0.18900
F1514       F  0.31609058  0.51458411  0.69034825    -0.18800
C1515       C  0.29704404  0.51580643  0.96733554    -0.20200
C1516       C  0.29729663  0.49479115  0.99586947    -0.08300
C1517       C  0.27526546  0.99493568  0.52328982     0.30600
C1518       C  0.25397900  0.51588612  0.52240229    -0.20200
C1519       C  0.25390073  0.53703613  0.99410521    -0.08300
C1520       C  0.27565729  0.53669868  0.96637984     0.30600
F1521       F  0.27697150  0.55719846  0.93928647    -0.18800
H1522       H  0.31383843  0.51643395  0.94615188     0.18900
H1523       H  0.23724607  0.51539691  0.54369398     0.18900
F1524       F  0.27370542  0.97440734  0.55032140    -0.18800
C1525       C  0.39752263  0.91253997  0.89354052    -0.20200
C1526       C  0.37235601  0.91807205  0.91425222    -0.08300
C1527       C  0.34677476  0.91895809  0.89302867     0.30600
C1528       C  0.34711940  0.91918775  0.85266988    -0.20200
C1529       C  0.37279777  0.91764993  0.83196063    -0.08300
C1530       C  0.39777483  0.91182547  0.85326862     0.30600
F1531       F  0.42228436  0.90379878  0.83565908    -0.18800
H1532       H  0.41713742  0.90766514  0.90842413     0.18900
H1533       H  0.32704846  0.92015879  0.83753991     0.18900
F1534       F  0.32126386  0.91879822  0.91108851    -0.18800
C1535       C  0.37859678  0.89548630  0.60209514    -0.20200
C1536       C  0.37306075  0.92076768  0.58191858    -0.08300
C1537       C  0.37203714  0.94594453  0.60372631     0.30600
C1538       C  0.37142222  0.94507229  0.64408551    -0.20200
C1539       C  0.37287966  0.91925460  0.66421060    -0.08300
C1540       C  0.37904080  0.89471870  0.64235243     0.30600
F1541       F  0.38726905  0.87019766  0.65942778    -0.18800
H1542       H  0.38354025  0.87614592  0.58673532     0.18900
H1543       H  0.37049571  0.96486007  0.65968070     0.18900
F1544       F  0.37280841  0.97153166  0.58631454    -0.18800
C1545       C  0.49027249  0.77993681  0.77291053    -0.20200
C1546       C  0.49186839  0.75819034  0.74552527    -0.08300
C1547       C  0.01365604  0.75821606  0.71798471     0.30600
C1548       C  0.03357410  0.77961095  0.71811131    -0.20200
C1549       C  0.03218884  0.80119081  0.74570112    -0.08300
C1550       C  0.01020690  0.80139231  0.77299740     0.30600
F1551       F  0.00765020  0.82258698  0.79913122    -0.18800
H1552       H  0.47334537  0.78042842  0.79397470     0.18900
H1553       H  0.05064771  0.77889031  0.69727962     0.18900
F1554       F  0.01643422  0.73695596  0.69200693    -0.18800
C1555       C  0.48972201  0.78085898  0.52836128    -0.20200
C1556       C  0.99142589  0.75902399  0.00110824    -0.08300
C1557       C  0.01393923  0.75838082  0.97465905     0.30600
C1558       C  0.03395510  0.77965940  0.97490155    -0.20200
C1559       C  0.03202895  0.80180044  0.00160670    -0.08300
C1560       C  0.00989072  0.80217492  0.52868230     0.30600
F1561       F  0.00723250  0.82357536  0.55447858    -0.18800
H1562       H  0.47242336  0.78165483  0.54884836     0.18900
H1563       H  0.05128858  0.77865986  0.95449074     0.18900
F1564       F  0.01706937  0.73674725  0.94930970    -0.18800
C1565       C  0.44681467  0.67113314  0.89309663    -0.20200
C1566       C  0.42538019  0.68566079  0.91370888    -0.08300
C1567       C  0.40979150  0.70609353  0.89265686     0.30600
C1568       C  0.40925451  0.70512951  0.85233348    -0.20200
C1569       C  0.42530169  0.68476126  0.83183002    -0.08300
C1570       C  0.44719208  0.67109511  0.85278940     0.30600
F1571       F  0.47037881  0.66007445  0.83482524    -0.18800
H1572       H  0.46437522  0.66114804  0.90797475     0.18900
H1573       H  0.39742644  0.72138373  0.83726253     0.18900
F1574       F  0.39727697  0.72849576  0.91052592    -0.18800
C1575       C  0.44435744  0.66848299  0.64317725    -0.20200
C1576       C  0.42322558  0.68338892  0.66382666    -0.08300
C1577       C  0.40762003  0.70382962  0.64267685     0.30600
C1578       C  0.40718579  0.70300459  0.60234118    -0.20200
C1579       C  0.42350046  0.68294250  0.58170880    -0.08300
C1580       C  0.44504399  0.66884344  0.60286655     0.30600
F1581       F  0.46842528  0.65799621  0.58519775    -0.18800
H1582       H  0.46157025  0.65795874  0.65810872     0.18900
H1583       H  0.39539910  0.71931500  0.58735226     0.18900
F1584       F  0.39516794  0.72633020  0.66038968    -0.18800
C1585       C  0.92331400  0.18335840  0.45789850     0.31100
C1586       C  0.92231298  0.18189465  0.03738003     0.31100
C1587       C  0.93307535  0.15527709  0.47675465    -0.05100
C1588       C  0.94139812  0.20487295  0.47884699    -0.05900
C1589       C  0.89390729  0.18798406  0.47697551    -0.05800
C1590       C  0.93215004  0.15436893  0.01702015    -0.05100
C1591       C  0.94100653  0.20418222  0.01874561    -0.05900
C1592       C  0.89336804  0.18728390  0.01734442    -0.05800
C1593       C  0.94192155  0.12787388  0.02777120    -0.31200
N1594       N  0.95024475  0.11365381  0.99585145     0.15300
C1595       C  0.94435282  0.12969277  0.46465269    -0.31200
H1596       H  0.94872820  0.12300674  0.43554636     0.17300
C1597       C  0.95903294  0.22474287  0.03146822    -0.30200
N1598       N  0.97038170  0.23754018  0.50029196     0.14000
C1599       C  0.95952244  0.22572163  0.46805123    -0.30200
C1600       C  0.86648143  0.19607378  0.02844753    -0.30400
N1601       N  0.85138012  0.20305640  0.99662316     0.14600
H1602       H  0.85904911  0.19972773  0.05740727     0.17200
C1603       C  0.86742944  0.19733119  0.46521268    -0.30500
H1604       H  0.86057703  0.20154697  0.43614143     0.17200
H1605       H  0.96452244  0.23177589  0.43889105     0.17200
H1606       H  0.94432501  0.11981152  0.05665032     0.17300
H1607       H  0.96416096  0.22950115  0.06107191     0.17200
C1608       C  0.92217843  0.18195417  0.20815960     0.31100
C1609       C  0.92318807  0.18261275  0.28766389     0.31100
C1610       C  0.93109116  0.15389815  0.22791472    -0.05100
C1611       C  0.94176262  0.20318225  0.22727858    -0.05900
C1612       C  0.89355467  0.18820958  0.22830425    -0.05800
C1613       C  0.93163165  0.15428991  0.26825896    -0.05100
C1614       C  0.94228768  0.20349837  0.26717728    -0.05900
C1615       C  0.89397769  0.18862371  0.26864307    -0.05800
C1616       C  0.94222627  0.12837190  0.27990299    -0.31200
N1617       N  0.94872245  0.11280332  0.24839775     0.15300
C1618       C  0.94120689  0.12760742  0.21662456    -0.31200
H1619       H  0.94470587  0.12018507  0.18762503     0.17300
C1620       C  0.96085711  0.22398643  0.27826850    -0.30200
N1621       N  0.97159057  0.23599709  0.24613964     0.14000
C1622       C  0.95995203  0.22353928  0.21484789    -0.30200
C1623       C  0.86728984  0.19761325  0.28040100    -0.30400
N1624       N  0.85144208  0.20345927  0.24883431     0.14600
H1625       H  0.86032535  0.20182102  0.30945415     0.17200
C1626       C  0.86677136  0.19685021  0.21713624    -0.30500
H1627       H  0.85909572  0.19973102  0.18814288     0.17200
H1628       H  0.96403503  0.22918203  0.18526525     0.17200
H1629       H  0.94611084  0.12138832  0.30899464     0.17300
H1630       H  0.96638306  0.22956947  0.30747056     0.17200
C1631       C  0.87257156  0.41980169  0.45855411     0.31100
C1632       C  0.87201446  0.42084628  0.03758733     0.31100
C1633       C  0.90117669  0.42678040  0.47815093    -0.05100
C1634       C  0.85237286  0.44188473  0.47747171    -0.05900
C1635       C  0.86401285  0.39210246  0.47832355    -0.05800
C1636       C  0.90077095  0.42737622  0.01856028    -0.05100
C1637       C  0.85164916  0.44190756  0.01755181    -0.05900
C1638       C  0.86320667  0.39277251  0.01850810    -0.05800
C1639       C  0.92226985  0.44529159  0.02988519    -0.31200
N1640       N  0.93628349  0.45457762  0.49845149     0.15300
C1641       C  0.92309793  0.44426980  0.46696957    -0.31200
H1642       H  0.92714615  0.45160740  0.43809354     0.17300
C1643       C  0.83098794  0.46120803  0.02857065    -0.30200
N1644       N  0.81969676  0.47354664  0.49666873     0.14000
C1645       C  0.83296984  0.46218322  0.46541488    -0.30200
C1646       C  0.84442200  0.37196397  0.02948511    -0.30400
N1647       N  0.83587279  0.35746967  0.49803483     0.14600
H1648       H  0.83618261  0.36868380  0.05812601     0.17200
C1649       C  0.84731343  0.36982264  0.46662896    -0.30500
H1650       H  0.84164088  0.36475117  0.43731409     0.17200
H1651       H  0.82831539  0.46785687  0.43598855     0.17200
H1652       H  0.92595225  0.45283455  0.05880145     0.17300
H1653       H  0.82466657  0.46596047  0.05775648     0.17200
C1654       C  0.87183581  0.41891151  0.20857317     0.31100
C1655       C  0.87259457  0.41889759  0.28763145     0.31100
C1656       C  0.90024267  0.42672468  0.22734043    -0.05100
C1657       C  0.85079499  0.43957327  0.22847973    -0.05900
C1658       C  0.86432174  0.39067122  0.22813760    -0.05800
C1659       C  0.90072196  0.42670922  0.26768448    -0.05100
C1660       C  0.85156538  0.43994300  0.26855826    -0.05900
C1661       C  0.86468390  0.39077235  0.26850194    -0.05800
C1662       C  0.92203110  0.44500663  0.27841762    -0.31200
N1663       N  0.93498044  0.45501002  0.24668303     0.15300
C1664       C  0.92125333  0.44492422  0.21546933    -0.31200
H1665       H  0.92489146  0.45195148  0.18633188     0.17300
C1666       C  0.83267012  0.46071312  0.28049950    -0.30200
N1667       N  0.82000855  0.47252727  0.24912464     0.14000
C1668       C  0.83068212  0.45939111  0.21731900    -0.30200
C1669       C  0.84670621  0.36960690  0.28037496    -0.30400
N1670       N  0.83638813  0.35616258  0.24910916     0.14600
H1671       H  0.84001617  0.36562173  0.30958178     0.17200
C1672       C  0.84606120  0.36937311  0.21738298    -0.30500
H1673       H  0.83811473  0.36553081  0.18869429     0.17200
H1674       H  0.82404527  0.46364922  0.18814386     0.17200
H1675       H  0.92597494  0.45279136  0.30714130     0.17300
H1676       H  0.82891788  0.46727998  0.30985014     0.17200
O1677       O  0.97970695  0.47154347  0.47560723    -0.77400
C1678       C  0.51959343  0.02798295  0.39287735     0.83600
O1679       O  0.57583509  0.48614425  0.02089247    -0.78500
O1680       O  0.56351724  0.08194580  0.47569733    -0.80000
O1681       O  0.96246583  0.06830097  0.01685854    -0.79800
O1682       O  0.95666113  0.49654967  0.02017671    -0.78500
Zn1683     Zn  0.51634978  0.49325128  0.46535346     1.55700
O1684       O  0.49109415  0.08991756  0.47549602    -0.79900
Cd1685     Cd  0.98367716  0.03051791  0.02751204     1.59700
Cd1686     Cd  0.55371237  0.02353644  0.02983667     1.59600
O1687       O  0.99399776  0.03076997  0.08402938    -0.79800
O1688       O  0.51942304  0.02689051  0.49671458    -1.90300
Cd1689     Cd  0.52460891  0.06207817  0.46630912     1.59900
O1690       O  0.54113233  0.02421433  0.08504558    -0.79800
O1691       O  0.52328995  0.05137098  0.40998295    -0.78500
C1692       C  0.57161440  0.46656091  0.49657923     0.84100
C1693       C  0.95851996  0.47511626  0.49807972     0.83700
O1694       O  0.51638410  0.50474002  0.41053679    -0.77400
C1695       C  0.96856210  0.08933127  0.99578329     0.84600
O1696       O  0.55041642  0.46726513  0.47372317    -0.77500
C1697       C  0.51738008  0.02754803  0.10175800     0.84700
C1698       C  0.58323038  0.07682634  0.49996613     0.85000
O1699       O  0.58177422  0.05623896  0.02329973    -0.79900
O1700       O  0.54821420  0.46619749  0.27129099    -0.77400
C1701       C  0.51928272  0.02794826  0.35139999     0.83600
O1702       O  0.95596386  0.49611891  0.22354791    -0.78500
O1703       O  0.49018896  0.08971823  0.26808218    -0.83600
O1704       O  0.58224290  0.05385812  0.22268871    -0.79800
O1705       O  0.57386199  0.48421743  0.22387877    -0.78500
Zn1706     Zn  0.51501884  0.49307970  0.27943799     1.55700
O1707       O  0.56336816  0.08131777  0.26813463    -0.79900
Cd1708     Cd  0.55303182  0.02221534  0.21529203     1.59700
Cd1709     Cd  0.98296243  0.02999800  0.21673654     1.59600
O1710       O  0.54079959  0.02364398  0.15999779    -0.79800
O1711       O  0.51858320  0.02644003  0.24785549    -1.90300
Cd1712     Cd  0.52396654  0.06195314  0.27761597     1.59900
O1713       O  0.99369100  0.03055357  0.16040718    -0.79800
O1714       O  0.52277389  0.05128674  0.33410339    -0.78500
C1715       C  0.95731205  0.47532449  0.24664957     0.84100
C1716       C  0.56926479  0.46489718  0.24831048     0.83700
O1717       O  0.51577904  0.50465558  0.33394747    -0.77400
C1718       C  0.58360805  0.07507151  0.24507569     0.84600
O1719       O  0.97810628  0.47213556  0.26981180    -0.77500
C1720       C  0.51720398  0.02733101  0.14299343     0.84700
C1721       C  0.96736726  0.08870743  0.24833176     0.85000
O1722       O  0.96122411  0.06742023  0.22768557    -0.79900
C1723       C  0.60749247  0.36987082  0.45809739     0.31100
C1724       C  0.60885564  0.37130835  0.03755642     0.31100
C1725       C  0.60402789  0.39941435  0.47692160    -0.05100
C1726       C  0.58506698  0.35290000  0.47907309    -0.05900
C1727       C  0.63530684  0.35902567  0.47722193    -0.05800
C1728       C  0.60486843  0.40018149  0.01727597    -0.05100
C1729       C  0.58571818  0.35356784  0.01896065    -0.05900
C1730       C  0.63609483  0.36002072  0.01749182    -0.05800
C1731       C  0.59708487  0.42728600  0.02817405    -0.31200
N1732       N  0.59005099  0.44222818  0.49631124     0.15300
C1733       C  0.59517824  0.42591626  0.46501090    -0.31200
H1734       H  0.59078631  0.43263161  0.43595248     0.17300
C1735       C  0.56542953  0.33532586  0.03184553    -0.30200
N1736       N  0.55260740  0.32373646  0.50078508     0.14000
C1737       C  0.56447135  0.33433849  0.46845260    -0.30200
C1738       C  0.66222054  0.34905590  0.02858196    -0.30400
N1739       N  0.67644765  0.34031186  0.49682149     0.14600
H1740       H  0.67012384  0.34642975  0.05751573     0.17200
C1741       C  0.66071324  0.34680102  0.46542762    -0.30500
H1742       H  0.66759546  0.34252279  0.43638690     0.17200
H1743       H  0.55905158  0.32834626  0.43934827     0.17200
H1744       H  0.59402542  0.43499640  0.05712806     0.17300
H1745       H  0.56136225  0.32978579  0.06144670     0.17200
C1746       C  0.60914387  0.36991335  0.20824365     0.31100
C1747       C  0.60846598  0.36927791  0.28776781     0.31100
C1748       C  0.60351151  0.39869992  0.22825438    -0.05100
C1749       C  0.58728159  0.35109174  0.22740087    -0.05900
C1750       C  0.63705241  0.36034817  0.22808705    -0.05800
C1751       C  0.60284916  0.39829653  0.26860736    -0.05100
C1752       C  0.58699966  0.35073505  0.26730651    -0.05900
C1753       C  0.63684844  0.36023997  0.26842971    -0.05800
C1754       C  0.59287186  0.42449733  0.28027478    -0.31200
N1755       N  0.58727450  0.44033445  0.24878331     0.15300
C1756       C  0.59466195  0.42539051  0.21706271    -0.31200
H1757       H  0.59149895  0.43296705  0.18812769     0.17300
C1758       C  0.56607962  0.33271870  0.27849261    -0.30200
N1759       N  0.55366616  0.32222971  0.24643031     0.14000
C1760       C  0.56648663  0.33328999  0.21506651    -0.30200
C1761       C  0.66296571  0.34952628  0.28000935    -0.30400
N1762       N  0.67803336  0.34190142  0.24840030     0.14600
H1763       H  0.67008930  0.34589103  0.30912278     0.17200
C1764       C  0.66298731  0.34921701  0.21674332    -0.30500
H1765       H  0.67041558  0.34576871  0.18773216     0.17200
H1766       H  0.56111883  0.32863262  0.18551120     0.17200
H1767       H  0.58840264  0.43145703  0.30922505     0.17300
H1768       H  0.56085235  0.32704841  0.30772813     0.17200
C1769       C  0.68126068  0.11184274  0.03682890     0.31100
C1770       C  0.67943920  0.11271765  0.45748018     0.31100
C1771       C  0.68791951  0.14048253  0.01751305    -0.05100
C1772       C  0.70124344  0.09122621  0.01591326    -0.05900
C1773       C  0.65217133  0.10529260  0.01829570    -0.05800
C1774       C  0.68715942  0.14095041  0.47726433    -0.05100
C1775       C  0.70039310  0.09155968  0.47604634    -0.05900
C1776       C  0.65106259  0.10620890  0.47806640    -0.05800
C1777       C  0.69434181  0.16804638  0.46609774    -0.31200
N1778       N  0.69995134  0.18354904  0.49797227     0.15300
C1779       C  0.69524662  0.16727670  0.02928252    -0.31200
H1780       H  0.69792987  0.17454077  0.05848989     0.17300
C1781       C  0.71977409  0.07143333  0.46340069    -0.30200
N1782       N  0.73229722  0.05903316  0.49451999     0.14000
C1783       C  0.72093824  0.07099096  0.02667670    -0.30200
C1784       C  0.62349746  0.09978089  0.46767535    -0.30400
N1785       N  0.60864457  0.09324512  0.49974594     0.14600
H1786       H  0.61512048  0.09818488  0.43886436     0.17200
C1787       C  0.62565094  0.09716686  0.03072156    -0.30500
H1788       H  0.61922507  0.09315173  0.05999193     0.17200
H1789       H  0.72682193  0.06560951  0.05586282     0.17200
H1790       H  0.69692838  0.17565043  0.43706311     0.17300
H1791       H  0.72405869  0.06597366  0.43376459     0.17200
C1792       C  0.68008475  0.11244221  0.28658568     0.31100
C1793       C  0.68138387  0.11109188  0.20725425     0.31100
C1794       C  0.68669579  0.14072430  0.26643629    -0.05100
C1795       C  0.70164941  0.09198292  0.26805249    -0.05900
C1796       C  0.65183994  0.10464001  0.26642002    -0.05800
C1797       C  0.68739574  0.14019654  0.22618943    -0.05100
C1798       C  0.70225272  0.09124171  0.22821341    -0.05900
C1799       C  0.65258322  0.10381819  0.22618899    -0.05800
C1800       C  0.69500487  0.16712370  0.21447006    -0.31200
N1801       N  0.69960290  0.18333016  0.24603485     0.15300
C1802       C  0.69393003  0.16766297  0.27763386    -0.31200
H1803       H  0.69626222  0.17525347  0.30676110     0.17300
C1804       C  0.72276776  0.07164689  0.21776021    -0.30200
N1805       N  0.73476185  0.06046653  0.25009171     0.14000
C1806       C  0.72201810  0.07304667  0.28096181    -0.30200
C1807       C  0.62591923  0.09561979  0.21414985    -0.30400
N1808       N  0.60931780  0.09112723  0.24534571     0.14600
H1809       H  0.61900315  0.09235003  0.18488973     0.17200
C1810       C  0.62453079  0.09740808  0.27725085    -0.30500
H1811       H  0.61643671  0.09544460  0.30614814     0.17200
H1812       H  0.72739136  0.06926470  0.31072527     0.17200
H1813       H  0.69871700  0.17414354  0.18540784     0.17300
H1814       H  0.72818749  0.06569392  0.18862023     0.17200
O1815       O  0.74003798  0.26927606  0.41208805    -0.77400
C1816       C  0.71634728  0.20888921  0.49873333     0.83600
O1817       O  0.72228022  0.32912338  0.01814241    -0.78500
O1818       O  0.76717823  0.25042672  0.08594934    -0.80000
O1819       O  0.82622783  0.24215338  0.47332093    -0.79800
O1820       O  0.78695082  0.27614172  0.41029234    -0.78500
Zn1821     Zn  0.72945108  0.26768700  0.46712885     1.55700
O1822       O  0.80734577  0.21760555  0.02119221    -0.79900
Cd1823     Cd  0.79877465  0.27629236  0.46591908     1.59700
Cd1824     Cd  0.76052294  0.30825337  0.02869593     1.59600
O1825       O  0.82032729  0.31383939  0.47507103    -0.79800
O1826       O  0.76382103  0.27278385  0.49750881    -1.90300
Cd1827     Cd  0.76897756  0.23861469  0.03015161     1.59900
O1828       O  0.79460824  0.33555084  0.02026346    -0.79800
O1829       O  0.73720924  0.20994029  0.02188201    -0.78500
C1830       C  0.70130803  0.32252155  0.49697206     0.84100
C1831       C  0.76313384  0.27286812  0.39404862     0.83700
O1832       O  0.71069394  0.22917769  0.47571533    -0.77400
C1833       C  0.82697897  0.22146932  0.99672814     0.84600
O1834       O  0.70143933  0.29998457  0.47674620    -0.77500
C1835       C  0.81600487  0.33464760  0.99773664     0.84700
C1836       C  0.76326104  0.27392982  0.10283303     0.85000
O1837       O  0.76014079  0.29736047  0.08544096    -0.79900
O1838       O  0.71037172  0.22938054  0.22479419    -0.77400
C1839       C  0.70238814  0.32344197  0.24850618     0.83600
O1840       O  0.78739225  0.27590647  0.16041107    -0.78500
O1841       O  0.79524339  0.33460096  0.27185487    -0.80000
O1842       O  0.76509250  0.24920962  0.33606144    -0.79800
O1843       O  0.73729174  0.20913715  0.26981127    -0.78500
Zn1844     Zn  0.72940118  0.26824360  0.21707578     1.55700
O1845       O  0.76119109  0.29643770  0.33587518    -0.79900
Cd1846     Cd  0.76838981  0.23808069  0.28014894     1.59700
Cd1847     Cd  0.79862287  0.27576262  0.21631860     1.59600
O1848       O  0.80729585  0.21782713  0.27309858    -0.79800
O1849       O  0.76369484  0.27245927  0.24776006    -1.90300
Cd1850     Cd  0.76113623  0.30763957  0.27959297     1.59900
O1851       O  0.82590052  0.24178936  0.22446842    -0.79800
O1852       O  0.72342021  0.32935677  0.26989339    -0.78500
C1853       C  0.76350612  0.27387653  0.14393912     0.84100
C1854       C  0.71624472  0.20855811  0.24693569     0.83700
O1855       O  0.70204742  0.30108635  0.22784918    -0.77400
C1856       C  0.76271156  0.27283771  0.35306096     0.84600
O1857       O  0.74022030  0.27096035  0.16186424    -0.77500
C1858       C  0.82689384  0.22157703  0.24857990     0.84700
C1859       C  0.81641373  0.33356886  0.24907410     0.85000
O1860       O  0.82031626  0.31295351  0.22600351    -0.79900
C1861       C  0.70083121  0.12664270  0.39258676    -0.20200
C1862       C  0.68011391  0.11171596  0.41316375    -0.08300
C1863       C  0.66445558  0.09181676  0.39190289     0.30600
C1864       C  0.66451626  0.09225036  0.35159230    -0.20200
C1865       C  0.68089821  0.11171386  0.33093860    -0.08300
C1866       C  0.70169412  0.12617904  0.35224772     0.30600
F1867       F  0.72424768  0.13795757  0.33453170    -0.18800
H1868       H  0.71741492  0.13763406  0.40767865     0.18900
H1869       H  0.65300816  0.07599543  0.33671272     0.18900
F1870       F  0.65117360  0.07020702  0.40956692    -0.18800
C1871       C  0.66888795  0.08896961  0.10144037    -0.20200
C1872       C  0.68357058  0.10988307  0.08103567    -0.08300
C1873       C  0.70396641  0.12500777  0.10224263     0.30600
C1874       C  0.70339743  0.12507091  0.14258289    -0.20200
C1875       C  0.68348460  0.10907381  0.16304968    -0.08300
C1876       C  0.66934056  0.08808706  0.14177512     0.30600
F1877       F  0.65779724  0.06550329  0.15949414    -0.18800
H1878       H  0.65792025  0.07247139  0.08621947     0.18900
H1879       H  0.71953306  0.13666849  0.15769305     0.18900
F1880       F  0.72598290  0.13769758  0.08449493    -0.18800
C1881       C  0.61937185  0.34604929  0.39340944    -0.20200
C1882       C  0.60515496  0.36771085  0.41389205    -0.08300
C1883       C  0.58498113  0.38358573  0.39266332     0.30600
C1884       C  0.58581964  0.38368858  0.35232785    -0.20200
C1885       C  0.60616197  0.36743438  0.33196849    -0.08300
C1886       C  0.61957785  0.34559321  0.35310042     0.30600
F1887       F  0.63044638  0.32236910  0.33525773    -0.18800
H1888       H  0.62894545  0.32839410  0.40834462     0.18900
H1889       H  0.56942050  0.39529037  0.33720926     0.18900
F1890       F  0.56290092  0.39690399  0.41037217    -0.18800
C1891       C  0.62174167  0.34840970  0.10213791    -0.20200
C1892       C  0.60763930  0.37021027  0.08185150    -0.08300
C1893       C  0.58757123  0.38621855  0.10318078     0.30600
C1894       C  0.58795723  0.38581315  0.14351974    -0.20200
C1895       C  0.60764364  0.36885760  0.16391347    -0.08300
C1896       C  0.62125905  0.34729472  0.14239495     0.30600
F1897       F  0.63144449  0.32357058  0.15963193    -0.18800
H1898       H  0.63160424  0.33095587  0.08696615     0.18900
H1899       H  0.57159338  0.39755033  0.15858633     0.18900
F1900       F  0.56584742  0.40008912  0.08549148    -0.18800
C1901       C  0.77986638  0.49775667  0.28057028    -0.20200
C1902       C  0.79901648  0.99518073  0.24973323    -0.08300
C1903       C  0.79727386  0.01517279  0.21983542     0.30600
C1904       C  0.77649273  0.03662776  0.22052718    -0.20200
C1905       C  0.75691936  0.03888855  0.25094110    -0.08300
C1906       C  0.75907217  0.01923790  0.28129580     0.30600
F1907       F  0.74046682  0.01988801  0.31101205    -0.18800
H1908       H  0.78051306  0.48262098  0.30384170     0.18900
H1909       H  0.77592219  0.05173759  0.19723667     0.18900
F1910       F  0.81609111  0.01458456  0.19034890    -0.18800
C1911       C  0.79704422  0.01580650  0.46733551    -0.20200
C1912       C  0.79729675  0.99479117  0.49586939    -0.08300
C1913       C  0.77526546  0.49493571  0.02328993     0.30600
C1914       C  0.75397878  0.01588605  0.02240227    -0.20200
C1915       C  0.75390081  0.03703607  0.49410510    -0.08300
C1916       C  0.77565743  0.03669871  0.46637983     0.30600
F1917       F  0.77697166  0.05719856  0.43928655    -0.18800
H1918       H  0.81383863  0.01643409  0.44615198     0.18900
H1919       H  0.73724580  0.01539678  0.04369390     0.18900
F1920       F  0.77370539  0.47440737  0.05032150    -0.18800
C1921       C  0.89752260  0.41253989  0.39354049    -0.20200
C1922       C  0.87235600  0.41807197  0.41425223    -0.08300
C1923       C  0.84677474  0.41895804  0.39302868     0.30600
C1924       C  0.84711935  0.41918775  0.35266990    -0.20200
C1925       C  0.87279771  0.41764991  0.33196061    -0.08300
C1926       C  0.89777477  0.41182539  0.35326858     0.30600
F1927       F  0.92228428  0.40379869  0.33565900    -0.18800
H1928       H  0.91713739  0.40766506  0.40842407     0.18900
H1929       H  0.82704840  0.42015883  0.33753994     0.18900
F1930       F  0.82126385  0.41879818  0.41108854    -0.18800
C1931       C  0.87859673  0.39548623  0.10209510    -0.20200
C1932       C  0.87306071  0.42076764  0.08191856    -0.08300
C1933       C  0.87203707  0.44594450  0.10372628     0.30600
C1934       C  0.87142211  0.44507231  0.14408550    -0.20200
C1935       C  0.87287955  0.41925459  0.16421056    -0.08300
C1936       C  0.87904071  0.39471868  0.14235241     0.30600
F1937       F  0.88726896  0.37019765  0.15942778    -0.18800
H1938       H  0.88354018  0.37614595  0.08673539     0.18900
H1939       H  0.87049559  0.46485998  0.15968059     0.18900
F1940       F  0.87280836  0.47153163  0.08631451    -0.18800
C1941       C  0.99027250  0.27993702  0.27291069    -0.20200
C1942       C  0.99186829  0.25819061  0.24552536    -0.08300
C1943       C  0.51365572  0.25821644  0.21798457     0.30600
C1944       C  0.53357381  0.27961131  0.21811116    -0.20200
C1945       C  0.53218872  0.30119100  0.24570126    -0.08300
C1946       C  0.51020695  0.30139234  0.27299778     0.30600
F1947       F  0.50765041  0.32258686  0.29913185    -0.18800
H1948       H  0.97334536  0.28042858  0.29397508     0.18900
H1949       H  0.55064721  0.27889078  0.19727936     0.18900
F1950       F  0.51643374  0.23695653  0.19200647    -0.18800
C1951       C  0.98972225  0.28085866  0.02836160    -0.20200
C1952       C  0.49142597  0.25902388  0.50110816    -0.08300
C1953       C  0.51393922  0.25838086  0.47465880     0.30600
C1954       C  0.53395510  0.27965947  0.47490125    -0.20200
C1955       C  0.53202898  0.30180040  0.50160662    -0.08300
C1956       C  0.50989094  0.30217471  0.02868254     0.30600
F1957       F  0.50723291  0.32357494  0.05447918    -0.18800
H1958       H  0.97242379  0.28165436  0.04884884     0.18900
H1959       H  0.55128834  0.27866003  0.45449049     0.18900
F1960       F  0.51706930  0.23674740  0.44930928    -0.18800
C1961       C  0.94681474  0.17113302  0.39309671    -0.20200
C1962       C  0.92538025  0.18566069  0.41370894    -0.08300
C1963       C  0.90979160  0.20609346  0.39265692     0.30600
C1964       C  0.90925464  0.20512945  0.35233354    -0.20200
C1965       C  0.92530181  0.18476120  0.33183009    -0.08300
C1966       C  0.94719216  0.17109501  0.35278947     0.30600
F1967       F  0.97037888  0.16007430  0.33482531    -0.18800
H1968       H  0.96437525  0.16114791  0.40797483     0.18900
H1969       H  0.89742657  0.22138369  0.33726260     0.18900
F1970       F  0.89727709  0.22849570  0.41052599    -0.18800
C1971       C  0.94435753  0.16848308  0.14317733    -0.20200
C1972       C  0.92322567  0.18338898  0.16382674    -0.08300
C1973       C  0.90762007  0.20382963  0.14267692     0.30600
C1974       C  0.90718581  0.20300458  0.10234124    -0.20200
C1975       C  0.92350049  0.18294249  0.08170889    -0.08300
C1976       C  0.94504405  0.16884347  0.10286664     0.30600
F1977       F  0.96842533  0.15799622  0.08519783    -0.18800
H1978       H  0.96157038  0.15795883  0.15810883     0.18900
H1979       H  0.89539910  0.21931494  0.08735233     0.18900
F1980       F  0.89516792  0.22633018  0.16038974    -0.18800
C1981       C  0.92331397  0.18335841  0.95789853     0.31100
C1982       C  0.92231305  0.18189464  0.53738000     0.31100
C1983       C  0.93307536  0.15527712  0.97675470    -0.05100
C1984       C  0.94139802  0.20487300  0.97884701    -0.05900
C1985       C  0.89390725  0.18798400  0.97697551    -0.05800
C1986       C  0.93215004  0.15436889  0.51702010    -0.05100
C1987       C  0.94100664  0.20418218  0.51874558    -0.05900
C1988       C  0.89336811  0.18728396  0.51734441    -0.05800
C1989       C  0.94192156  0.12787384  0.52777113    -0.31200
N1990       N  0.95024476  0.11365378  0.49585137     0.15300
C1991       C  0.94435283  0.12969280  0.96465277    -0.31200
H1992       H  0.94872821  0.12300676  0.93554642     0.17300
C1993       C  0.95903305  0.22474286  0.53146828    -0.30200
N1994       N  0.97038163  0.23754019  0.00029201     0.14000
C1995       C  0.95952237  0.22572167  0.96805122    -0.30200
C1996       C  0.86648151  0.19607385  0.52844755    -0.30400
N1997       N  0.85138017  0.20305648  0.49662321     0.14600
H1998       H  0.85904920  0.19972778  0.55740730     0.17200
C1999       C  0.86742942  0.19733110  0.96521270    -0.30500
H2000       H  0.86057699  0.20154691  0.93614127     0.17200
H2001       H  0.96452237  0.23177589  0.93889120     0.17200
H2002       H  0.94432504  0.11981148  0.55665021     0.17300
H2003       H  0.96416101  0.22950112  0.56107162     0.17200
C2004       C  0.92217849  0.18195413  0.70815960     0.31100
C2005       C  0.92318806  0.18261273  0.78766390     0.31100
C2006       C  0.93109119  0.15389812  0.72791475    -0.05100
C2007       C  0.94176268  0.20318219  0.72727861    -0.05900
C2008       C  0.89355472  0.18820957  0.72830421    -0.05800
C2009       C  0.93163166  0.15428988  0.76825900    -0.05100
C2010       C  0.94228770  0.20349833  0.76717730    -0.05900
C2011       C  0.89397770  0.18862370  0.76864304    -0.05800
C2012       C  0.94222631  0.12837188  0.77990309    -0.31200
N2013       N  0.94872253  0.11280332  0.74839782     0.15300
C2014       C  0.94120697  0.12760741  0.71662465    -0.31200
H2015       H  0.94470599  0.12018503  0.68762503     0.17300
C2016       C  0.96085714  0.22398637  0.77826858    -0.30200
N2017       N  0.97159065  0.23599699  0.74613969     0.14000
C2018       C  0.95995213  0.22353917  0.71484797    -0.30200
C2019       C  0.86728983  0.19761330  0.78040102    -0.30400
N2020       N  0.85144213  0.20345932  0.74883421     0.14600
H2021       H  0.86032539  0.20182103  0.80945380     0.17200
C2022       C  0.86677144  0.19685025  0.71713621    -0.30500
H2023       H  0.85909580  0.19973109  0.68814269     0.17200
H2024       H  0.96403518  0.22918194  0.68526519     0.17200
H2025       H  0.94611084  0.12138834  0.80899460     0.17300
H2026       H  0.96638304  0.22956940  0.80747051     0.17200
C2027       C  0.87257154  0.41980171  0.95855410     0.31100
C2028       C  0.87201447  0.42084629  0.53758736     0.31100
C2029       C  0.90117665  0.42678046  0.97815092    -0.05100
C2030       C  0.85237279  0.44188471  0.97747170    -0.05900
C2031       C  0.86401289  0.39210245  0.97832350    -0.05800
C2032       C  0.90077098  0.42737617  0.51856029    -0.05100
C2033       C  0.85164922  0.44190761  0.51755182    -0.05900
C2034       C  0.86320663  0.39277254  0.51850815    -0.05800
C2035       C  0.92226987  0.44529154  0.52988516    -0.31200
N2036       N  0.93628346  0.45457766  0.99845146     0.15300
C2037       C  0.92309789  0.44426985  0.96696955    -0.31200
H2038       H  0.92714612  0.45160743  0.93809353     0.17300
C2039       C  0.83098798  0.46120812  0.52857071    -0.30200
N2040       N  0.81969668  0.47354659  0.99666879     0.14000
C2041       C  0.83296976  0.46218320  0.96541488    -0.30200
C2042       C  0.84442197  0.37196400  0.52948521    -0.30400
N2043       N  0.83587282  0.35746966  0.99803474     0.14600
H2044       H  0.83618261  0.36868384  0.55812606     0.17200
C2045       C  0.84731346  0.36982264  0.96662886    -0.30500
H2046       H  0.84164091  0.36475121  0.93731407     0.17200
H2047       H  0.82831532  0.46785687  0.93598862     0.17200
H2048       H  0.92595227  0.45283455  0.55880159     0.17300
H2049       H  0.82466666  0.46596051  0.55775619     0.17200
C2050       C  0.87183585  0.41891151  0.70857319     0.31100
C2051       C  0.87259460  0.41889757  0.78763147     0.31100
C2052       C  0.90024272  0.42672463  0.72734049    -0.05100
C2053       C  0.85079505  0.43957329  0.72847973    -0.05900
C2054       C  0.86432172  0.39067122  0.72813758    -0.05800
C2055       C  0.90072202  0.42670917  0.76768454    -0.05100
C2056       C  0.85156545  0.43994300  0.76855826    -0.05900
C2057       C  0.86468391  0.39077235  0.76850191    -0.05800
C2058       C  0.92203115  0.44500663  0.77841779    -0.31200
N2059       N  0.93498047  0.45501001  0.74668311     0.15300
C2060       C  0.92125336  0.44492418  0.71546946    -0.31200
H2061       H  0.92489151  0.45195149  0.68633182     0.17300
C2062       C  0.83267017  0.46071308  0.78049940    -0.30200
N2063       N  0.82000859  0.47252725  0.74912464     0.14000
C2064       C  0.83068215  0.45939113  0.71731887    -0.30200
C2065       C  0.84670620  0.36960693  0.78037483    -0.30400
N2066       N  0.83638808  0.35616262  0.74910913     0.14600
H2067       H  0.84001609  0.36562172  0.80958201     0.17200
C2068       C  0.84606114  0.36937312  0.71738283    -0.30500
H2069       H  0.83811479  0.36553086  0.68869457     0.17200
H2070       H  0.82404539  0.46364919  0.68814420     0.17200
H2071       H  0.92597493  0.45279129  0.80714112     0.17300
H2072       H  0.82891785  0.46727998  0.80985038     0.17200
O2073       O  0.97970692  0.47154350  0.97560720    -0.77400
C2074       C  0.51959348  0.02798304  0.89287735     0.83600
O2075       O  0.57583512  0.48614426  0.52089248    -0.78500
O2076       O  0.56351722  0.08194586  0.97569738    -0.80000
O2077       O  0.96246585  0.06830094  0.51685847    -0.79800
O2078       O  0.95666115  0.49654964  0.52017674    -0.78500
Zn2079     Zn  0.51634976  0.49325128  0.96535344     1.55700
O2080       O  0.49109417  0.08991759  0.97549607    -0.79900
Cd2081     Cd  0.98367719  0.03051790  0.52751205     1.59700
Cd2082     Cd  0.55371236  0.02353644  0.52983672     1.59600
O2083       O  0.99399778  0.03077000  0.58402941    -0.79800
O2084       O  0.51942305  0.02689053  0.99671454    -1.90300
Cd2085     Cd  0.52460891  0.06207821  0.96630914     1.59900
O2086       O  0.54113234  0.02421438  0.58504563    -0.79800
O2087       O  0.52328998  0.05137106  0.90998297    -0.78500
C2088       C  0.57161436  0.46656088  0.99657922     0.84100
C2089       C  0.95851993  0.47511630  0.99807969     0.83700
O2090       O  0.51638410  0.50474005  0.91053681    -0.77400
C2091       C  0.96856211  0.08933124  0.49578320     0.84600
O2092       O  0.55041638  0.46726511  0.97372317    -0.77500
C2093       C  0.51738009  0.02754806  0.60175805     0.84700
C2094       C  0.58323035  0.07682639  0.99996620     0.85000
O2095       O  0.58177423  0.05623892  0.52329970    -0.79900
O2096       O  0.54821420  0.46619749  0.77129105    -0.77400
C2097       C  0.51928279  0.02794835  0.85140000     0.83600
O2098       O  0.95596387  0.49611890  0.72354799    -0.78500
O2099       O  0.49018899  0.08971827  0.76808218    -0.83600
O2100       O  0.58224297  0.05385813  0.72268878    -0.79800
O2101       O  0.57386196  0.48421741  0.72387878    -0.78500
Zn2102     Zn  0.51501884  0.49307970  0.77943806     1.55700
O2103       O  0.56336821  0.08131783  0.76813464    -0.79900
Cd2104     Cd  0.55303188  0.02221536  0.71529208     1.59700
Cd2105     Cd  0.98296248  0.02999801  0.71673662     1.59600
O2106       O  0.54079962  0.02364400  0.65999784    -0.79800
O2107       O  0.51858326  0.02644007  0.74785553    -1.90300
Cd2108     Cd  0.52396659  0.06195319  0.77761597     1.59900
O2109       O  0.99369102  0.03055359  0.66040724    -0.79800
O2110       O  0.52277395  0.05128683  0.83410340    -0.78500
C2111       C  0.95731207  0.47532447  0.74664966     0.84100
C2112       C  0.56926479  0.46489717  0.74831051     0.83700
O2113       O  0.51577906  0.50465561  0.83394752    -0.77400
C2114       C  0.58360810  0.07507155  0.74507574     0.84600
O2115       O  0.97810631  0.47213555  0.76981187    -0.77500
C2116       C  0.51720400  0.02733104  0.64299349     0.84700
C2117       C  0.96736734  0.08870744  0.74833185     0.85000
O2118       O  0.96122419  0.06742024  0.72768567    -0.79900
C2119       C  0.60749250  0.36987082  0.95809738     0.31100
C2120       C  0.60885558  0.37130836  0.53755643     0.31100
C2121       C  0.60402792  0.39941434  0.97692157    -0.05100
C2122       C  0.58506702  0.35290000  0.97907309    -0.05900
C2123       C  0.63530687  0.35902568  0.97722193    -0.05800
C2124       C  0.60486839  0.40018151  0.51727599    -0.05100
C2125       C  0.58571811  0.35356786  0.51896065    -0.05900
C2126       C  0.63609477  0.36002073  0.51749181    -0.05800
C2127       C  0.59708486  0.42728606  0.52817416    -0.31200
N2128       N  0.59005096  0.44222816  0.99631123     0.15300
C2129       C  0.59517823  0.42591624  0.96501090    -0.31200
H2130       H  0.59078628  0.43263162  0.93595240     0.17300
C2131       C  0.56542945  0.33532588  0.53184553    -0.30200
N2132       N  0.55260746  0.32373645  0.00078509     0.14000
C2133       C  0.56447140  0.33433850  0.96845262    -0.30200
C2134       C  0.66222045  0.34905592  0.52858187    -0.30400
N2135       N  0.67644768  0.34031183  0.99682145     0.14600
H2136       H  0.67012383  0.34642975  0.55751609     0.17200
C2137       C  0.66071323  0.34680101  0.96542772    -0.30500
H2138       H  0.66759550  0.34252273  0.93638654     0.17200
H2139       H  0.55905159  0.32834627  0.93934823     0.17200
H2140       H  0.59402545  0.43499638  0.55712780     0.17300
H2141       H  0.56136215  0.32978583  0.56144666     0.17200
C2142       C  0.60914380  0.36991334  0.70824365     0.31100
C2143       C  0.60846592  0.36927790  0.78776781     0.31100
C2144       C  0.60351147  0.39869991  0.72825438    -0.05100
C2145       C  0.58728150  0.35109176  0.72740087    -0.05900
C2146       C  0.63705232  0.36034813  0.72808706    -0.05800
C2147       C  0.60284913  0.39829652  0.76860735    -0.05100
C2148       C  0.58699957  0.35073507  0.76730651    -0.05900
C2149       C  0.63684838  0.36023993  0.76842971    -0.05800
C2150       C  0.59287185  0.42449732  0.78027477    -0.31200
N2151       N  0.58727448  0.44033444  0.74878333     0.15300
C2152       C  0.59466192  0.42539051  0.71706269    -0.31200
H2153       H  0.59149890  0.43296703  0.68812775     0.17300
C2154       C  0.56607951  0.33271875  0.77849263    -0.30200
N2155       N  0.55366607  0.32222975  0.74643032     0.14000
C2156       C  0.56648653  0.33328999  0.71506646    -0.30200
C2157       C  0.66296566  0.34952624  0.78000940    -0.30400
N2158       N  0.67803330  0.34190140  0.74840029     0.14600
H2159       H  0.67008921  0.34589101  0.80912261     0.17200
C2160       C  0.66298724  0.34921698  0.71674329    -0.30500
H2161       H  0.67041548  0.34576871  0.68773223     0.17200
H2162       H  0.56111878  0.32863262  0.68551137     0.17200
H2163       H  0.58840263  0.43145703  0.80922512     0.17300
H2164       H  0.56085224  0.32704848  0.80772809     0.17200
C2165       C  0.68126073  0.11184267  0.53682883     0.31100
C2166       C  0.67943915  0.11271772  0.95748024     0.31100
C2167       C  0.68791954  0.14048248  0.51751302    -0.05100
C2168       C  0.70124351  0.09122616  0.51591319    -0.05900
C2169       C  0.65217139  0.10529252  0.51829561    -0.05800
C2170       C  0.68715939  0.14095048  0.97726436    -0.05100
C2171       C  0.70039304  0.09155973  0.97604641    -0.05900
C2172       C  0.65106253  0.10620900  0.97806648    -0.05800
C2173       C  0.69434181  0.16804646  0.96609769    -0.31200
N2174       N  0.69995134  0.18354909  0.99797231     0.15300
C2175       C  0.69524663  0.16727668  0.52928260    -0.31200
H2176       H  0.69792983  0.17454066  0.55848955     0.17300
C2177       C  0.71977399  0.07143334  0.96340076    -0.30200
N2178       N  0.73229709  0.05903315  0.99452008     0.14000
C2179       C  0.72093834  0.07099095  0.52667660    -0.30200
C2180       C  0.62349741  0.09978098  0.96767545    -0.30400
N2181       N  0.60864452  0.09324521  0.99974603     0.14600
H2182       H  0.61512044  0.09818497  0.93886445     0.17200
C2183       C  0.62565101  0.09716679  0.53072140    -0.30500
H2184       H  0.61922509  0.09315165  0.55999205     0.17200
H2185       H  0.72682204  0.06560950  0.55586278     0.17200
H2186       H  0.69692837  0.17565044  0.93706335     0.17300
H2187       H  0.72405859  0.06597367  0.93376471     0.17200
C2188       C  0.68008483  0.11244220  0.78658571     0.31100
C2189       C  0.68138391  0.11109189  0.70725425     0.31100
C2190       C  0.68669583  0.14072431  0.76643632    -0.05100
C2191       C  0.70164950  0.09198294  0.76805246    -0.05900
C2192       C  0.65184002  0.10463998  0.76642007    -0.05800
C2193       C  0.68739577  0.14019654  0.72618946    -0.05100
C2194       C  0.70225280  0.09124172  0.72821338    -0.05900
C2195       C  0.65258328  0.10381817  0.72618904    -0.05800
C2196       C  0.69500487  0.16712370  0.71447012    -0.31200
N2197       N  0.69960291  0.18333017  0.74603487     0.15300
C2198       C  0.69393008  0.16766300  0.77763400    -0.31200
H2199       H  0.69626224  0.17525343  0.80676084     0.17300
C2200       C  0.72276783  0.07164689  0.71776005    -0.30200
N2201       N  0.73476194  0.06046654  0.75009162     0.14000
C2202       C  0.72201821  0.07304670  0.78096171    -0.30200
C2203       C  0.62591929  0.09561982  0.71414996    -0.30400
N2204       N  0.60931787  0.09112724  0.74534577     0.14600
H2205       H  0.61900317  0.09235008  0.68488966     0.17200
C2206       C  0.62453084  0.09740806  0.77725099    -0.30500
H2207       H  0.61643683  0.09544461  0.80614798     0.17200
H2208       H  0.72739150  0.06926472  0.81072525     0.17200
H2209       H  0.69871698  0.17414357  0.68540777     0.17300
H2210       H  0.72818746  0.06569396  0.68862040     0.17200
O2211       O  0.74003802  0.26927604  0.91208798    -0.77400
C2212       C  0.71634730  0.20888925  0.99873333     0.83600
O2213       O  0.72228019  0.32912342  0.51814247    -0.78500
O2214       O  0.76717814  0.25042675  0.58594937    -0.80000
O2215       O  0.82622785  0.24215335  0.97332088    -0.79800
O2216       O  0.78695086  0.27614169  0.91029226    -0.78500
Zn2217     Zn  0.72945113  0.26768699  0.96712879     1.55700
O2218       O  0.80734580  0.21760558  0.52119229    -0.79900
Cd2219     Cd  0.79877469  0.27629234  0.96591900     1.59700
Cd2220     Cd  0.76052290  0.30825340  0.52869597     1.59600
O2221       O  0.82032733  0.31383938  0.97507093    -0.79800
O2222       O  0.76382108  0.27278384  0.99750874    -1.90300
Cd2223     Cd  0.76897753  0.23861468  0.53015165     1.59900
O2224       O  0.79460820  0.33555086  0.52026356    -0.79800
O2225       O  0.73720921  0.20994026  0.52188198    -0.78500
C2226       C  0.70130808  0.32252154  0.99697200     0.84100
C2227       C  0.76313387  0.27286810  0.89404855     0.83700
O2228       O  0.71069399  0.22917771  0.97571533    -0.77400
C2229       C  0.82697899  0.22146937  0.49672820     0.84600
O2230       O  0.70143938  0.29998456  0.97674609    -0.77500
C2231       C  0.81600483  0.33464761  0.49773675     0.84700
C2232       C  0.76326096  0.27392985  0.60283304     0.85000
O2233       O  0.76014072  0.29736050  0.58544098    -0.79900
O2234       O  0.71037167  0.22938057  0.72479424    -0.77400
C2235       C  0.70238809  0.32344197  0.74850616     0.83600
O2236       O  0.78739218  0.27590657  0.66041105    -0.78500
O2237       O  0.79524332  0.33460102  0.77185481    -0.80000
O2238       O  0.76509255  0.24920963  0.83606135    -0.79800
O2239       O  0.73729179  0.20913715  0.76981118    -0.78500
Zn2240     Zn  0.72940115  0.26824361  0.71707579     1.55700
O2241       O  0.76119106  0.29643770  0.83587513    -0.79900
Cd2242     Cd  0.76838984  0.23808070  0.78014886     1.59700
Cd2243     Cd  0.79862285  0.27576266  0.71631855     1.59600
O2244       O  0.80729590  0.21782717  0.77309847    -0.79800
O2245       O  0.76369482  0.27245929  0.74776003    -1.90300
Cd2246     Cd  0.76113618  0.30763960  0.77959292     1.59900
O2247       O  0.82590052  0.24178939  0.72446825    -0.79800
O2248       O  0.72342014  0.32935677  0.76989339    -0.78500
C2249       C  0.76350605  0.27387657  0.64393913     0.84100
C2250       C  0.71624473  0.20855811  0.74693569     0.83700
O2251       O  0.70204738  0.30108636  0.72784914    -0.77400
C2252       C  0.76271158  0.27283771  0.85306089     0.84600
O2253       O  0.74022025  0.27096032  0.66186426    -0.77500
C2254       C  0.82689387  0.22157706  0.74857978     0.84700
C2255       C  0.81641369  0.33356889  0.74907406     0.85000
O2256       O  0.82031624  0.31295354  0.72600352    -0.79900
C2257       C  0.70083124  0.12664276  0.89258685    -0.20200
C2258       C  0.68011389  0.11171603  0.91316381    -0.08300
C2259       C  0.66445557  0.09181682  0.89190293     0.30600
C2260       C  0.66451629  0.09225035  0.85159232    -0.20200
C2261       C  0.68089828  0.11171385  0.83093864    -0.08300
C2262       C  0.70169416  0.12617906  0.85224780     0.30600
F2263       F  0.72424771  0.13795762  0.83453181    -0.18800
H2264       H  0.71741485  0.13763407  0.90767867     0.18900
H2265       H  0.65300827  0.07599549  0.83671283     0.18900
F2266       F  0.65117353  0.07020712  0.90956697    -0.18800
C2267       C  0.66888796  0.08896959  0.60144034    -0.20200
C2268       C  0.68357062  0.10988303  0.58103562    -0.08300
C2269       C  0.70396644  0.12500774  0.60224258     0.30600
C2270       C  0.70339744  0.12507091  0.64258284    -0.20200
C2271       C  0.68348462  0.10907381  0.66304966    -0.08300
C2272       C  0.66934056  0.08808707  0.64177510     0.30600
F2273       F  0.65779721  0.06550332  0.65949414    -0.18800
H2274       H  0.65792026  0.07247136  0.58621946     0.18900
H2275       H  0.71953307  0.13666851  0.65769302     0.18900
F2276       F  0.72598292  0.13769756  0.58449489    -0.18800
C2277       C  0.61937182  0.34604925  0.89340944    -0.20200
C2278       C  0.60515496  0.36771084  0.91389203    -0.08300
C2279       C  0.58498111  0.38358572  0.89266332     0.30600
C2280       C  0.58581957  0.38368860  0.85232783    -0.20200
C2281       C  0.60616192  0.36743437  0.83196849    -0.08300
C2282       C  0.61957779  0.34559318  0.85310041     0.30600
F2283       F  0.63044629  0.32236907  0.83525770    -0.18800
H2284       H  0.62894539  0.32839411  0.90834457     0.18900
H2285       H  0.56942053  0.39529034  0.83720934     0.18900
F2286       F  0.56290091  0.39690397  0.91037220    -0.18800
C2287       C  0.62174158  0.34840970  0.60213791    -0.20200
C2288       C  0.60763923  0.37021028  0.58185150    -0.08300
C2289       C  0.58757116  0.38621857  0.60318078     0.30600
C2290       C  0.58795718  0.38581314  0.64351971    -0.20200
C2291       C  0.60764356  0.36885759  0.66391347    -0.08300
C2292       C  0.62125897  0.34729471  0.64239495     0.30600
F2293       F  0.63144441  0.32357056  0.65963193    -0.18800
H2294       H  0.63160415  0.33095584  0.58696613     0.18900
H2295       H  0.57159326  0.39755040  0.65858640     0.18900
F2296       F  0.56584738  0.40008918  0.58549148    -0.18800
C2297       C  0.77986633  0.49775656  0.78057021    -0.20200
C2298       C  0.79901646  0.99518062  0.74973303    -0.08300
C2299       C  0.79727372  0.01517256  0.71983508     0.30600
C2300       C  0.77649263  0.03662755  0.72052692    -0.20200
C2301       C  0.75691941  0.03888852  0.75094096    -0.08300
C2302       C  0.75907231  0.01923795  0.78129577     0.30600
F2303       F  0.74046711  0.01988818  0.81101218    -0.18800
H2304       H  0.78051297  0.48262078  0.80384164     0.18900
H2305       H  0.77592202  0.05173736  0.69723622     0.18900
F2306       F  0.81609082  0.01458421  0.69034840    -0.18800
C2307       C  0.79704410  0.01580651  0.96733559    -0.20200
C2308       C  0.79729660  0.99479114  0.99586943    -0.08300
C2309       C  0.77526552  0.49493574  0.52328984     0.30600
C2310       C  0.75397895  0.01588610  0.52240224    -0.20200
C2311       C  0.75390066  0.03703606  0.99410518    -0.08300
C2312       C  0.77565730  0.03669872  0.96637994     0.30600
F2313       F  0.77697157  0.05719862  0.93928672    -0.18800
H2314       H  0.81383848  0.01643411  0.94615213     0.18900
H2315       H  0.73724601  0.01539684  0.54369386     0.18900
F2316       F  0.77370549  0.47440743  0.55032147    -0.18800
C2317       C  0.89752261  0.41253990  0.89354052    -0.20200
C2318       C  0.87235599  0.41807199  0.91425223    -0.08300
C2319       C  0.84677474  0.41895804  0.89302868     0.30600
C2320       C  0.84711938  0.41918771  0.85266989    -0.20200
C2321       C  0.87279773  0.41764988  0.83196062    -0.08300
C2322       C  0.89777480  0.41182539  0.85326861     0.30600
F2323       F  0.92228432  0.40379870  0.83565905    -0.18800
H2324       H  0.91713739  0.40766508  0.90842412     0.18900
H2325       H  0.82704842  0.42015877  0.83753992     0.18900
F2326       F  0.82126384  0.41879819  0.91108851    -0.18800
C2327       C  0.87859677  0.39548630  0.60209517    -0.20200
C2328       C  0.87306073  0.42076766  0.58191859    -0.08300
C2329       C  0.87203707  0.44594452  0.60372632     0.30600
C2330       C  0.87142213  0.44507231  0.64408554    -0.20200
C2331       C  0.87287959  0.41925459  0.66421061    -0.08300
C2332       C  0.87904078  0.39471870  0.64235245     0.30600
F2333       F  0.88726904  0.37019767  0.65942781    -0.18800
H2334       H  0.88354028  0.37614589  0.58673533     0.18900
H2335       H  0.87049560  0.46486001  0.65968065     0.18900
F2336       F  0.87280834  0.47153164  0.58631454    -0.18800
C2337       C  0.99027244  0.27993698  0.77291067    -0.20200
C2338       C  0.99186834  0.25819051  0.74552542    -0.08300
C2339       C  0.51365590  0.25821626  0.71798490     0.30600
C2340       C  0.53357392  0.27961117  0.71811148    -0.20200
C2341       C  0.53218868  0.30119101  0.74570129    -0.08300
C2342       C  0.51020679  0.30139247  0.77299764     0.30600
F2343       F  0.50765011  0.32258714  0.79913147    -0.18800
H2344       H  0.97334532  0.28042855  0.79397493     0.18900
H2345       H  0.55064753  0.27889055  0.69727971     0.18900
F2346       F  0.51643408  0.23695619  0.69200708    -0.18800
C2347       C  0.98972217  0.28085875  0.52836146    -0.20200
C2348       C  0.49142596  0.25902394  0.00110808    -0.08300
C2349       C  0.51393915  0.25838096  0.97465865     0.30600
C2350       C  0.53395503  0.27965954  0.97490118    -0.20200
C2351       C  0.53202902  0.30180041  0.00160662    -0.08300
C2352       C  0.50989086  0.30217472  0.52868250     0.30600
F2353       F  0.50723277  0.32357501  0.55447904    -0.18800
H2354       H  0.97242375  0.28165444  0.54884863     0.18900
H2355       H  0.55128834  0.27866012  0.95449026     0.18900
F2356       F  0.51706916  0.23674757  0.94930900    -0.18800
C2357       C  0.94681468  0.17113303  0.89309671    -0.20200
C2358       C  0.92538022  0.18566070  0.91370896    -0.08300
C2359       C  0.90979156  0.20609346  0.89265693     0.30600
C2360       C  0.90925460  0.20512944  0.85233355    -0.20200
C2361       C  0.92530178  0.18476119  0.83183010    -0.08300
C2362       C  0.94719213  0.17109501  0.85278950     0.30600
F2363       F  0.97037886  0.16007430  0.83482536    -0.18800
H2364       H  0.96437527  0.16114788  0.90797490     0.18900
H2365       H  0.89742654  0.22138367  0.83726260     0.18900
F2366       F  0.89727704  0.22849569  0.91052600    -0.18800
C2367       C  0.94435760  0.16848300  0.64317731    -0.20200
C2368       C  0.92322576  0.18338894  0.66382672    -0.08300
C2369       C  0.90762020  0.20382963  0.64267690     0.30600
C2370       C  0.90718593  0.20300459  0.60234122    -0.20200
C2371       C  0.92350058  0.18294247  0.58170886    -0.08300
C2372       C  0.94504412  0.16884341  0.60286661     0.30600
F2373       F  0.96842538  0.15799613  0.58519779    -0.18800
H2374       H  0.96157043  0.15795875  0.65810878     0.18900
H2375       H  0.89539925  0.21931495  0.58735234     0.18900
F2376       F  0.89516811  0.22633020  0.66038974    -0.18800
C2377       C  0.92331393  0.68335849  0.45789844     0.31100
C2378       C  0.92231292  0.68189469  0.03737994     0.31100
C2379       C  0.93307536  0.65527719  0.47675457    -0.05100
C2380       C  0.94139798  0.70487307  0.47884700    -0.05900
C2381       C  0.89390720  0.68798405  0.47697542    -0.05800
C2382       C  0.93215005  0.65436901  0.01702002    -0.05100
C2383       C  0.94100643  0.70418232  0.01874557    -0.05900
C2384       C  0.89336798  0.68728391  0.01734430    -0.05800
C2385       C  0.94192159  0.62787395  0.02777104    -0.31200
N2386       N  0.95024480  0.61365392  0.99585126     0.15300
C2387       C  0.94435289  0.62969289  0.46465259    -0.31200
H2388       H  0.94872830  0.62300689  0.43554628     0.17300
C2389       C  0.95903282  0.72474298  0.03146826    -0.30200
N2390       N  0.97038157  0.73754026  0.50029205     0.14000
C2391       C  0.95952232  0.72572172  0.46805136    -0.30200
C2392       C  0.86648136  0.69607381  0.02844748    -0.30400
N2393       N  0.85138008  0.70305649  0.99662306     0.14600
H2394       H  0.85904909  0.69972770  0.05740697     0.17200
C2395       C  0.86742936  0.69733120  0.46521260    -0.30500
H2396       H  0.86057696  0.70154704  0.43614135     0.17200
H2397       H  0.96452246  0.73177601  0.43889093     0.17200
H2398       H  0.94432501  0.61981157  0.05665006     0.17300
H2399       H  0.96416084  0.72950123  0.06107186     0.17200
C2400       C  0.92217833  0.68195412  0.20815954     0.31100
C2401       C  0.92318799  0.68261277  0.28766383     0.31100
C2402       C  0.93109104  0.65389811  0.22791471    -0.05100
C2403       C  0.94176256  0.70318218  0.22727845    -0.05900
C2404       C  0.89355458  0.68820959  0.22830422    -0.05800
C2405       C  0.93163155  0.65428990  0.26825895    -0.05100
C2406       C  0.94228762  0.70349833  0.26717714    -0.05900
C2407       C  0.89397761  0.68862374  0.26864304    -0.05800
C2408       C  0.94222626  0.62837193  0.27990299    -0.31200
N2409       N  0.94872247  0.61280335  0.24839778     0.15300
C2410       C  0.94120684  0.62760740  0.21662457    -0.31200
H2411       H  0.94470582  0.62018504  0.18762508     0.17300
C2412       C  0.96085713  0.72398629  0.27826822    -0.30200
N2413       N  0.97159064  0.73599691  0.24613943     0.14000
C2414       C  0.95995206  0.72353913  0.21484761    -0.30200
C2415       C  0.86728976  0.69761333  0.28040104    -0.30400
N2416       N  0.85144202  0.70345934  0.24883430     0.14600
H2417       H  0.86032532  0.70182108  0.30945396     0.17200
C2418       C  0.86677128  0.69685025  0.21713620    -0.30500
H2419       H  0.85909565  0.69973104  0.18814294     0.17200
H2420       H  0.96403503  0.72918180  0.18526528     0.17200
H2421       H  0.94611089  0.62138839  0.30899469     0.17300
H2422       H  0.96638317  0.72956937  0.30747057     0.17200
C2423       C  0.87257161  0.91980174  0.45855411     0.31100
C2424       C  0.87201444  0.92084636  0.03758735     0.31100
C2425       C  0.90117674  0.92678042  0.47815094    -0.05100
C2426       C  0.85237292  0.94188479  0.47747171    -0.05900
C2427       C  0.86401290  0.89210250  0.47832355    -0.05800
C2428       C  0.90077094  0.92737626  0.01856028    -0.05100
C2429       C  0.85164917  0.94190767  0.01755183    -0.05900
C2430       C  0.86320663  0.89277261  0.01850812    -0.05800
C2431       C  0.92226986  0.94529159  0.02988517    -0.31200
N2432       N  0.93628356  0.95457758  0.49845152     0.15300
C2433       C  0.92309800  0.94426980  0.46696959    -0.31200
H2434       H  0.92714622  0.95160741  0.43809360     0.17300
C2435       C  0.83098792  0.96120812  0.02857067    -0.30200
N2436       N  0.81969681  0.97354668  0.49666876     0.14000
C2437       C  0.83296989  0.96218328  0.46541488    -0.30200
C2438       C  0.84442197  0.87196407  0.02948512    -0.30400
N2439       N  0.83587283  0.85746972  0.49803479     0.14600
H2440       H  0.83618256  0.86868389  0.05812607     0.17200
C2441       C  0.84731347  0.86982271  0.46662897    -0.30500
H2442       H  0.84164090  0.86475124  0.43731398     0.17200
H2443       H  0.82831545  0.96785692  0.43598862     0.17200
H2444       H  0.92595227  0.95283457  0.05880154     0.17300
H2445       H  0.82466653  0.96596053  0.05775644     0.17200
C2446       C  0.87183584  0.91891156  0.20857317     0.31100
C2447       C  0.87259461  0.91889762  0.28763146     0.31100
C2448       C  0.90024271  0.92672468  0.22734043    -0.05100
C2449       C  0.85079506  0.93957334  0.22847975    -0.05900
C2450       C  0.86432174  0.89067127  0.22813759    -0.05800
C2451       C  0.90072201  0.92670922  0.26768447    -0.05100
C2452       C  0.85156544  0.93994304  0.26855828    -0.05900
C2453       C  0.86468391  0.89077240  0.26850193    -0.05800
C2454       C  0.92203113  0.94500664  0.27841761    -0.31200
N2455       N  0.93498048  0.95501002  0.24668302     0.15300
C2456       C  0.92125337  0.94492422  0.21546932    -0.31200
H2457       H  0.92489150  0.95195148  0.18633187     0.17300
C2458       C  0.83267013  0.96071311  0.28049952    -0.30200
N2459       N  0.82000858  0.97252726  0.24912468     0.14000
C2460       C  0.83068218  0.95939117  0.21731900    -0.30200
C2461       C  0.84670619  0.86960698  0.28037495    -0.30400
N2462       N  0.83638808  0.85616269  0.24910916     0.14600
H2463       H  0.84001616  0.86562180  0.30958179     0.17200
C2464       C  0.84606115  0.86937320  0.21738295    -0.30500
H2465       H  0.83811469  0.86553092  0.18869436     0.17200
H2466       H  0.82404536  0.96364934  0.18814393     0.17200
H2467       H  0.92597496  0.95279140  0.30714127     0.17300
H2468       H  0.82891782  0.96727993  0.30985020     0.17200
O2469       O  0.97970702  0.97154343  0.47560728    -0.77400
C2470       C  0.51959345  0.52798301  0.39287730     0.83600
O2471       O  0.57583517  0.98614423  0.02089242    -0.78500
O2472       O  0.56351728  0.58194586  0.47569731    -0.80000
O2473       O  0.96246582  0.56830106  0.01685832    -0.79800
O2474       O  0.95666117  0.99654963  0.02017675    -0.78500
Zn2475     Zn  0.51634982  0.99325122  0.46535351     1.55700
O2476       O  0.49109420  0.58991764  0.47549593    -0.79900
Cd2477     Cd  0.98367712  0.53051800  0.02751196     1.59700
Cd2478     Cd  0.55371234  0.52353648  0.02983667     1.59600
O2479       O  0.99399771  0.53077013  0.08402933    -0.79800
O2480       O  0.51942303  0.52689058  0.49671453    -1.90300
Cd2481     Cd  0.52460894  0.56207823  0.46630907     1.59900
O2482       O  0.54113228  0.52421442  0.08504557    -0.79800
O2483       O  0.52329001  0.55137103  0.40998290    -0.78500
C2484       C  0.57161445  0.96656089  0.49657928     0.84100
C2485       C  0.95852003  0.97511621  0.49807976     0.83700
O2486       O  0.51638413  0.00473995  0.41053685    -0.77400
C2487       C  0.96856212  0.58933135  0.99578309     0.84600
O2488       O  0.55041646  0.96726509  0.47372323    -0.77500
C2489       C  0.51738003  0.52754816  0.10175798     0.84700
C2490       C  0.58323041  0.57682639  0.49996615     0.85000
O2491       O  0.58177425  0.55623895  0.02329974    -0.79900
O2492       O  0.54821414  0.96619745  0.27129098    -0.77400
C2493       C  0.51928275  0.52794831  0.35139994     0.83600
O2494       O  0.95596389  0.99611889  0.22354789    -0.78500
O2495       O  0.49018897  0.58971831  0.26808213    -0.83600
O2496       O  0.58224294  0.55385818  0.22268869    -0.79800
O2497       O  0.57386197  0.98421741  0.22387881    -0.78500
Zn2498     Zn  0.51501881  0.99307967  0.27943803     1.55700
O2499       O  0.56336818  0.58131784  0.26813459    -0.79900
Cd2500     Cd  0.55303184  0.52221539  0.21529200     1.59700
Cd2501     Cd  0.98296243  0.52999803  0.21673655     1.59600
O2502       O  0.54079955  0.52364407  0.15999777    -0.79800
O2503       O  0.51858321  0.52644008  0.24785545    -1.90300
Cd2504     Cd  0.52396656  0.56195320  0.27761592     1.59900
O2505       O  0.99369096  0.53055366  0.16040717    -0.79800
O2506       O  0.52277393  0.55128680  0.33410334    -0.78500
C2507       C  0.95731207  0.97532448  0.24664956     0.84100
C2508       C  0.56926475  0.96489715  0.24831050     0.83700
O2509       O  0.51577903  0.00465552  0.33394752    -0.77400
C2510       C  0.58360808  0.57507158  0.24507567     0.84600
O2511       O  0.97810629  0.97213556  0.26981182    -0.77500
C2512       C  0.51720394  0.52733114  0.14299342     0.84700
C2513       C  0.96736729  0.58870747  0.24833179     0.85000
O2514       O  0.96122414  0.56742025  0.22768564    -0.79900
C2515       C  0.60749248  0.86987083  0.45809739     0.31100
C2516       C  0.60885562  0.87130829  0.03755643     0.31100
C2517       C  0.60402795  0.89941435  0.47692161    -0.05100
C2518       C  0.58506696  0.85290003  0.47907308    -0.05900
C2519       C  0.63530683  0.85902564  0.47722191    -0.05800
C2520       C  0.60486837  0.90018142  0.01727598    -0.05100
C2521       C  0.58571817  0.85356776  0.01896067    -0.05900
C2522       C  0.63609482  0.86002069  0.01749182    -0.05800
C2523       C  0.59708486  0.92728595  0.02817408    -0.31200
N2524       N  0.59005105  0.94222818  0.49631128     0.15300
C2525       C  0.59517831  0.92591628  0.46501093    -0.31200
H2526       H  0.59078639  0.93263164  0.43595253     0.17300
C2527       C  0.56542954  0.83532579  0.03184556    -0.30200
N2528       N  0.55260738  0.82373651  0.50078507     0.14000
C2529       C  0.56447133  0.83433851  0.46845256    -0.30200
C2530       C  0.66222056  0.84905592  0.02858198    -0.30400
N2531       N  0.67644764  0.84031182  0.49682143     0.14600
H2532       H  0.67012385  0.84642980  0.05751560     0.17200
C2533       C  0.66071323  0.84680099  0.46542757    -0.30500
H2534       H  0.66759544  0.84252280  0.43638686     0.17200
H2535       H  0.55905157  0.82834627  0.43934834     0.17200
H2536       H  0.59402543  0.93499633  0.05712800     0.17300
H2537       H  0.56136222  0.82978574  0.06144682     0.17200
C2538       C  0.60914388  0.86991334  0.20824366     0.31100
C2539       C  0.60846595  0.86927789  0.28776781     0.31100
C2540       C  0.60351139  0.89869988  0.22825438    -0.05100
C2541       C  0.58728168  0.85109164  0.22740085    -0.05900
C2542       C  0.63705244  0.86034828  0.22808710    -0.05800
C2543       C  0.60284904  0.89829649  0.26860735    -0.05100
C2544       C  0.58699972  0.85073495  0.26730649    -0.05900
C2545       C  0.63684847  0.86024006  0.26842976    -0.05800
C2546       C  0.59287178  0.92449730  0.28027478    -0.31200
N2547       N  0.58727443  0.94033441  0.24878331     0.15300
C2548       C  0.59466187  0.92539048  0.21706270    -0.31200
H2549       H  0.59149889  0.93296703  0.18812767     0.17300
C2550       C  0.56607975  0.83271851  0.27849258    -0.30200
N2551       N  0.55366637  0.82222947  0.24643024     0.14000
C2552       C  0.56648680  0.83328979  0.21506646    -0.30200
C2553       C  0.66296575  0.84952638  0.28000952    -0.30400
N2554       N  0.67803340  0.84190157  0.24840038     0.14600
H2555       H  0.67008924  0.84589111  0.30912259     0.17200
C2556       C  0.66298736  0.84921717  0.21674341    -0.30500
H2557       H  0.67041565  0.84576887  0.18773218     0.17200
H2558       H  0.56111904  0.82863240  0.18551113     0.17200
H2559       H  0.58840261  0.93145702  0.30922505     0.17300
H2560       H  0.56085246  0.82704824  0.30772802     0.17200
C2561       C  0.68126078  0.61184278  0.03682892     0.31100
C2562       C  0.67943923  0.61271776  0.45748023     0.31100
C2563       C  0.68791957  0.64048260  0.01751309    -0.05100
C2564       C  0.70124357  0.59122628  0.01591328    -0.05900
C2565       C  0.65217143  0.60529260  0.01829571    -0.05800
C2566       C  0.68715946  0.64095050  0.47726440    -0.05100
C2567       C  0.70039312  0.59155976  0.47604635    -0.05900
C2568       C  0.65106262  0.60620901  0.47806647    -0.05800
C2569       C  0.69434187  0.66804646  0.46609785    -0.31200
N2570       N  0.69995139  0.68354912  0.49797238     0.15300
C2571       C  0.69524668  0.66727679  0.02928266    -0.31200
H2572       H  0.69792991  0.67454077  0.05848965     0.17300
C2573       C  0.71977410  0.57143339  0.46340067    -0.30200
N2574       N  0.73229723  0.55903321  0.49451998     0.14000
C2575       C  0.72093839  0.57099105  0.02667672    -0.30200
C2576       C  0.62349751  0.59978101  0.46767550    -0.30400
N2577       N  0.60864460  0.59324519  0.49974599     0.14600
H2578       H  0.61512045  0.59818502  0.43886420     0.17200
C2579       C  0.62565104  0.59716682  0.03072157    -0.30500
H2580       H  0.61922518  0.59315170  0.05999192     0.17200
H2581       H  0.72682206  0.56560961  0.05586283     0.17200
H2582       H  0.69692844  0.67565054  0.43706318     0.17300
H2583       H  0.72405868  0.56597374  0.43376462     0.17200
C2584       C  0.68008476  0.61244239  0.28658569     0.31100
C2585       C  0.68138389  0.61109203  0.20725427     0.31100
C2586       C  0.68669576  0.64072449  0.26643628    -0.05100
C2587       C  0.70164946  0.59198311  0.26805254    -0.05900
C2588       C  0.65183996  0.60464014  0.26642002    -0.05800
C2589       C  0.68739571  0.64019670  0.22618943    -0.05100
C2590       C  0.70225275  0.59124188  0.22821346    -0.05900
C2591       C  0.65258324  0.60381831  0.22618899    -0.05800
C2592       C  0.69500482  0.66712385  0.21447007    -0.31200
N2593       N  0.69960283  0.68333034  0.24603480     0.15300
C2594       C  0.69392998  0.66766319  0.27763393    -0.31200
H2595       H  0.69626213  0.67525363  0.30676078     0.17300
C2596       C  0.72276776  0.57164704  0.21776032    -0.30200
N2597       N  0.73476189  0.56046670  0.25009177     0.14000
C2598       C  0.72201817  0.57304687  0.28096196    -0.30200
C2599       C  0.62591927  0.59561987  0.21414987    -0.30400
N2600       N  0.60931784  0.59112730  0.24534571     0.14600
H2601       H  0.61900317  0.59235008  0.18488966     0.17200
C2602       C  0.62453081  0.59740819  0.27725085    -0.30500
H2603       H  0.61643673  0.59544473  0.30614811     0.17200
H2604       H  0.72739138  0.56926499  0.31072508     0.17200
H2605       H  0.69871697  0.67414371  0.18540771     0.17300
H2606       H  0.72818748  0.56569401  0.18862019     0.17200
O2607       O  0.74003804  0.76927606  0.41208805    -0.77400
C2608       C  0.71634732  0.70888929  0.49873343     0.83600
O2609       O  0.72228023  0.82912347  0.01814235    -0.78500
O2610       O  0.76717831  0.75042689  0.08594935    -0.80000
O2611       O  0.82622781  0.74215343  0.47332086    -0.79800
O2612       O  0.78695085  0.77614187  0.41029234    -0.78500
Zn2613     Zn  0.72945113  0.76768703  0.46712884     1.55700
O2614       O  0.80734578  0.71760566  0.02119217    -0.79900
Cd2615     Cd  0.79877467  0.77629243  0.46591906     1.59700
Cd2616     Cd  0.76052293  0.80825348  0.02869591     1.59600
O2617       O  0.82032735  0.81383943  0.47507102    -0.79800
O2618       O  0.76382106  0.77278393  0.49750879    -1.90300
Cd2619     Cd  0.76897758  0.73861481  0.03015163     1.59900
O2620       O  0.79460822  0.83555094  0.02026346    -0.79800
O2621       O  0.73720924  0.70994041  0.02188209    -0.78500
C2622       C  0.70130805  0.82252155  0.49697198     0.84100
C2623       C  0.76313388  0.77286819  0.39404862     0.83700
O2624       O  0.71069403  0.72917773  0.47571534    -0.77400
C2625       C  0.82697895  0.72146941  0.99672806     0.84600
O2626       O  0.70143936  0.79998456  0.47674615    -0.77500
C2627       C  0.81600486  0.83464769  0.99773666     0.84700
C2628       C  0.76326107  0.77392998  0.10283302     0.85000
O2629       O  0.76014075  0.79736062  0.08544094    -0.79900
O2630       O  0.71037167  0.72938072  0.22479413    -0.77400
C2631       C  0.70238817  0.82344212  0.24850625     0.83600
O2632       O  0.78739227  0.77590663  0.16041107    -0.78500
O2633       O  0.79524333  0.83460110  0.27185484    -0.80000
O2634       O  0.76509242  0.74920972  0.33606142    -0.79800
O2635       O  0.73729170  0.70913731  0.26981118    -0.78500
Zn2636     Zn  0.72940119  0.76824377  0.21707575     1.55700
O2637       O  0.76119119  0.79643781  0.33587521    -0.79900
Cd2638     Cd  0.76838977  0.73808081  0.28014892     1.59700
Cd2639     Cd  0.79862286  0.77576273  0.21631861     1.59600
O2640       O  0.80729581  0.71782725  0.27309858    -0.79800
O2641       O  0.76369483  0.77245940  0.24776006    -1.90300
Cd2642     Cd  0.76113623  0.80763969  0.27959300     1.59900
O2643       O  0.82590049  0.74178946  0.22446840    -0.79800
O2644       O  0.72342019  0.82935685  0.26989355    -0.78500
C2645       C  0.76350615  0.77387670  0.14393912     0.84100
C2646       C  0.71624468  0.70855828  0.24693563     0.83700
O2647       O  0.70204746  0.80108654  0.22784914    -0.77400
C2648       C  0.76271158  0.77283781  0.35306096     0.84600
O2649       O  0.74022032  0.77096053  0.16186422    -0.77500
C2650       C  0.82689380  0.72157713  0.24857989     0.84700
C2651       C  0.81641369  0.83356898  0.24907410     0.85000
O2652       O  0.82031625  0.81295361  0.22600355    -0.79900
C2653       C  0.70083127  0.62664290  0.39258684    -0.20200
C2654       C  0.68011394  0.61171611  0.41316378    -0.08300
C2655       C  0.66445559  0.59181693  0.39190290     0.30600
C2656       C  0.66451624  0.59225052  0.35159228    -0.20200
C2657       C  0.68089821  0.61171405  0.33093862    -0.08300
C2658       C  0.70169410  0.62617926  0.35224776     0.30600
F2659       F  0.72424762  0.63795784  0.33453174    -0.18800
H2660       H  0.71741483  0.63763414  0.40767858     0.18900
H2661       H  0.65300822  0.57599569  0.33671280     0.18900
F2662       F  0.65117359  0.57020719  0.40956690    -0.18800
C2663       C  0.66888804  0.58896969  0.10144041    -0.20200
C2664       C  0.68357067  0.60988314  0.08103569    -0.08300
C2665       C  0.70396649  0.62500786  0.10224266     0.30600
C2666       C  0.70339751  0.62507105  0.14258294    -0.20200
C2667       C  0.68348464  0.60907394  0.16304969    -0.08300
C2668       C  0.66934061  0.58808717  0.14177514     0.30600
F2669       F  0.65779729  0.56550339  0.15949417    -0.18800
H2670       H  0.65792035  0.57247141  0.08621948     0.18900
H2671       H  0.71953303  0.63666857  0.15769302     0.18900
F2672       F  0.72598297  0.63769767  0.08449496    -0.18800
C2673       C  0.61937181  0.84604928  0.39340944    -0.20200
C2674       C  0.60515495  0.86771087  0.41389204    -0.08300
C2675       C  0.58498113  0.88358576  0.39266332     0.30600
C2676       C  0.58581962  0.88368860  0.35232785    -0.20200
C2677       C  0.60616194  0.86743437  0.33196849    -0.08300
C2678       C  0.61957780  0.84559320  0.35310042     0.30600
F2679       F  0.63044634  0.82236911  0.33525772    -0.18800
H2680       H  0.62894539  0.82839411  0.40834460     0.18900
H2681       H  0.56942049  0.89529039  0.33720927     0.18900
F2682       F  0.56290096  0.89690408  0.41037218    -0.18800
C2683       C  0.62174172  0.84840970  0.10213793    -0.20200
C2684       C  0.60763930  0.87021023  0.08185150    -0.08300
C2685       C  0.58757121  0.88621848  0.10318078     0.30600
C2686       C  0.58795724  0.88581308  0.14351972    -0.20200
C2687       C  0.60764366  0.86885759  0.16391348    -0.08300
C2688       C  0.62125913  0.84729474  0.14239497     0.30600
F2689       F  0.63144464  0.82357063  0.15963197    -0.18800
H2690       H  0.63160433  0.83095587  0.08696617     0.18900
H2691       H  0.57159330  0.89755031  0.15858639     0.18900
F2692       F  0.56584739  0.90008904  0.08549148    -0.18800
C2693       C  0.77986611  0.99775630  0.28057007    -0.20200
C2694       C  0.79901648  0.49518078  0.24973318    -0.08300
C2695       C  0.79727359  0.51517261  0.21983509     0.30600
C2696       C  0.77649250  0.53662762  0.22052692    -0.20200
C2697       C  0.75691940  0.53888869  0.25094113    -0.08300
C2698       C  0.75907248  0.51923827  0.28129608     0.30600
F2699       F  0.74046741  0.51988861  0.31101266    -0.18800
H2700       H  0.78051260  0.98262049  0.30384115     0.18900
H2701       H  0.77592179  0.55173727  0.19723618     0.18900
F2702       F  0.81609052  0.51458412  0.19034822    -0.18800
C2703       C  0.79704414  0.51580642  0.46733538    -0.20200
C2704       C  0.79729670  0.49479115  0.49586936    -0.08300
C2705       C  0.77526534  0.99493563  0.02328981     0.30600
C2706       C  0.75397895  0.51588617  0.02240238    -0.20200
C2707       C  0.75390079  0.53703609  0.49410508    -0.08300
C2708       C  0.77565735  0.53669864  0.46637971     0.30600
F2709       F  0.77697154  0.55719842  0.43928631    -0.18800
H2710       H  0.81383845  0.51643394  0.44615184     0.18900
H2711       H  0.73724598  0.51539696  0.04369411     0.18900
F2712       F  0.77370525  0.97440723  0.05032131    -0.18800
C2713       C  0.89752267  0.91253999  0.39354049    -0.20200
C2714       C  0.87235606  0.91807203  0.41425223    -0.08300
C2715       C  0.84677480  0.91895806  0.39302869     0.30600
C2716       C  0.84711941  0.91918774  0.35266990    -0.20200
C2717       C  0.87279776  0.91764994  0.33196061    -0.08300
C2718       C  0.89777484  0.91182549  0.35326859     0.30600
F2719       F  0.92228437  0.90379883  0.33565903    -0.18800
H2720       H  0.91713747  0.90766518  0.40842407     0.18900
H2721       H  0.82704846  0.92015879  0.33753995     0.18900
F2722       F  0.82126391  0.91879818  0.41108856    -0.18800
C2723       C  0.87859671  0.89548634  0.10209513    -0.20200
C2724       C  0.87306070  0.92076772  0.08191858    -0.08300
C2725       C  0.87203708  0.94594458  0.10372630     0.30600
C2726       C  0.87142215  0.94507239  0.14408554    -0.20200
C2727       C  0.87287957  0.91925465  0.16421058    -0.08300
C2728       C  0.87904071  0.89471874  0.14235242     0.30600
F2729       F  0.88726893  0.87019770  0.15942776    -0.18800
H2730       H  0.88354018  0.87614596  0.08673533     0.18900
H2731       H  0.87049565  0.96486001  0.15968060     0.18900
F2732       F  0.87280837  0.97153170  0.08631453    -0.18800
C2733       C  0.99027261  0.77993677  0.27291058    -0.20200
C2734       C  0.99186839  0.75819040  0.24552513    -0.08300
C2735       C  0.51365589  0.75821622  0.21798448     0.30600
C2736       C  0.53357404  0.77961105  0.21811111    -0.20200
C2737       C  0.53218892  0.80119078  0.24570115    -0.08300
C2738       C  0.51020706  0.80139222  0.27299754     0.30600
F2739       F  0.50765048  0.82258681  0.29913151    -0.18800
H2740       H  0.97334562  0.78042832  0.29397486     0.18900
H2741       H  0.55064750  0.77889045  0.19727939     0.18900
F2742       F  0.51643391  0.73695627  0.19200644    -0.18800
C2743       C  0.98972204  0.78085892  0.02836138    -0.20200
C2744       C  0.49142593  0.75902401  0.50110823    -0.08300
C2745       C  0.51393933  0.75838079  0.47465911     0.30600
C2746       C  0.53395521  0.77965939  0.47490154    -0.20200
C2747       C  0.53202896  0.80180048  0.50160664    -0.08300
C2748       C  0.50989082  0.80217479  0.02868250     0.30600
F2749       F  0.50723271  0.82357515  0.05447891    -0.18800
H2750       H  0.97242341  0.78165475  0.04884852     0.18900
H2751       H  0.55128860  0.77865983  0.45449093     0.18900
F2752       F  0.51706951  0.73674717  0.44930988    -0.18800
C2753       C  0.94681470  0.67113318  0.39309664    -0.20200
C2754       C  0.92538021  0.68566081  0.41370888    -0.08300
C2755       C  0.90979153  0.70609356  0.39265685     0.30600
C2756       C  0.90925456  0.70512954  0.35233346    -0.20200
C2757       C  0.92530175  0.68476128  0.33183003    -0.08300
C2758       C  0.94719213  0.67109513  0.35278942     0.30600
F2759       F  0.97037886  0.66007444  0.33482527    -0.18800
H2760       H  0.96437530  0.66114808  0.40797482     0.18900
H2761       H  0.89742651  0.72138373  0.33726254     0.18900
F2762       F  0.89727698  0.72849577  0.41052591    -0.18800
C2763       C  0.94435748  0.66848299  0.14317730    -0.20200
C2764       C  0.92322556  0.68338891  0.16382668    -0.08300
C2765       C  0.90761997  0.70382958  0.14267685     0.30600
C2766       C  0.90718572  0.70300458  0.10234117    -0.20200
C2767       C  0.92350043  0.68294249  0.08170882    -0.08300
C2768       C  0.94504397  0.66884345  0.10286657     0.30600
F2769       F  0.96842527  0.65799625  0.08519775    -0.18800
H2770       H  0.96157017  0.65795884  0.15810866     0.18900
H2771       H  0.89539907  0.71931489  0.08735233     0.18900
F2772       F  0.89516785  0.72633014  0.16038968    -0.18800
C2773       C  0.92331394  0.68335853  0.95789843     0.31100
C2774       C  0.92231293  0.68189466  0.53737994     0.31100
C2775       C  0.93307539  0.65527724  0.97675457    -0.05100
C2776       C  0.94139795  0.70487313  0.97884697    -0.05900
C2777       C  0.89390720  0.68798405  0.97697539    -0.05800
C2778       C  0.93215002  0.65436897  0.51702001    -0.05100
C2779       C  0.94100647  0.70418228  0.51874559    -0.05900
C2780       C  0.89336799  0.68728392  0.51734433    -0.05800
C2781       C  0.94192154  0.62787392  0.52777103    -0.31200
N2782       N  0.95024480  0.61365388  0.49585127     0.15300
C2783       C  0.94435288  0.62969293  0.96465261    -0.31200
H2784       H  0.94872825  0.62300690  0.93554619     0.17300
C2785       C  0.95903289  0.72474295  0.53146839    -0.30200
N2786       N  0.97038151  0.73754033  0.00029204     0.14000
C2787       C  0.95952228  0.72572181  0.96805127    -0.30200
C2788       C  0.86648138  0.69607382  0.52844754    -0.30400
N2789       N  0.85138008  0.70305649  0.49662312     0.14600
H2790       H  0.85904914  0.69972773  0.55740700     0.17200
C2791       C  0.86742937  0.69733120  0.96521256    -0.30500
H2792       H  0.86057699  0.70154705  0.93614127     0.17200
H2793       H  0.96452237  0.73177606  0.93889110     0.17200
H2794       H  0.94432495  0.61981152  0.55665010     0.17300
H2795       H  0.96416082  0.72950115  0.56107158     0.17200
C2796       C  0.92217837  0.68195414  0.70815953     0.31100
C2797       C  0.92318798  0.68261280  0.78766383     0.31100
C2798       C  0.93109106  0.65389813  0.72791471    -0.05100
C2799       C  0.94176260  0.70318219  0.72727848    -0.05900
C2800       C  0.89355462  0.68820962  0.72830418    -0.05800
C2801       C  0.93163155  0.65428992  0.76825895    -0.05100
C2802       C  0.94228763  0.70349836  0.76717717    -0.05900
C2803       C  0.89397761  0.68862378  0.76864300    -0.05800
C2804       C  0.94222625  0.62837195  0.77990304    -0.31200
N2805       N  0.94872245  0.61280335  0.74839781     0.15300
C2806       C  0.94120685  0.62760741  0.71662462    -0.31200
H2807       H  0.94470585  0.62018502  0.68762503     0.17300
C2808       C  0.96085713  0.72398634  0.77826840    -0.30200
N2809       N  0.97159067  0.73599691  0.74613952     0.14000
C2810       C  0.95995213  0.72353911  0.71484778    -0.30200
C2811       C  0.86728976  0.69761341  0.78040103    -0.30400
N2812       N  0.85144205  0.70345942  0.74883421     0.14600
H2813       H  0.86032536  0.70182115  0.80945370     0.17200
C2814       C  0.86677132  0.69685030  0.71713616    -0.30500
H2815       H  0.85909568  0.69973110  0.68814278     0.17200
H2816       H  0.96403522  0.72918181  0.68526509     0.17200
H2817       H  0.94611085  0.62138843  0.80899464     0.17300
H2818       H  0.96638307  0.72956938  0.80747039     0.17200
C2819       C  0.87257153  0.91980179  0.95855411     0.31100
C2820       C  0.87201451  0.92084631  0.53758736     0.31100
C2821       C  0.90117665  0.92678051  0.97815093    -0.05100
C2822       C  0.85237280  0.94188481  0.97747171    -0.05900
C2823       C  0.86401285  0.89210255  0.97832353    -0.05800
C2824       C  0.90077103  0.92737617  0.51856029    -0.05100
C2825       C  0.85164928  0.94190765  0.51755182    -0.05900
C2826       C  0.86320667  0.89277257  0.51850815    -0.05800
C2827       C  0.92226993  0.94529150  0.52988517    -0.31200
N2828       N  0.93628349  0.95457764  0.99845149     0.15300
C2829       C  0.92309792  0.94426988  0.96696952    -0.31200
H2830       H  0.92714613  0.95160743  0.93809369     0.17300
C2831       C  0.83098804  0.96120814  0.52857072    -0.30200
N2832       N  0.81969666  0.97354666  0.99666879     0.14000
C2833       C  0.83296975  0.96218327  0.96541489    -0.30200
C2834       C  0.84442198  0.87196402  0.52948528    -0.30400
N2835       N  0.83587281  0.85746975  0.99803476     0.14600
H2836       H  0.83618270  0.86868388  0.55812578     0.17200
C2837       C  0.84731343  0.86982273  0.96662886    -0.30500
H2838       H  0.84164092  0.86475129  0.93731415     0.17200
H2839       H  0.82831529  0.96785692  0.93598862     0.17200
H2840       H  0.92595234  0.95283451  0.55880166     0.17300
H2841       H  0.82466670  0.96596052  0.55775623     0.17200
C2842       C  0.87183593  0.91891148  0.70857320     0.31100
C2843       C  0.87259463  0.91889761  0.78763148     0.31100
C2844       C  0.90024278  0.92672466  0.72734051    -0.05100
C2845       C  0.85079510  0.93957324  0.72847971    -0.05900
C2846       C  0.86432185  0.89067119  0.72813763    -0.05800
C2847       C  0.90072203  0.92670924  0.76768455    -0.05100
C2848       C  0.85156546  0.93994298  0.76855823    -0.05900
C2849       C  0.86468399  0.89077236  0.76850198    -0.05800
C2850       C  0.92203114  0.94500669  0.77841773    -0.31200
N2851       N  0.93498050  0.95501005  0.74668312     0.15300
C2852       C  0.92125344  0.94492421  0.71546939    -0.31200
H2853       H  0.92489160  0.95195142  0.68633200     0.17300
C2854       C  0.83267013  0.96071305  0.78049936    -0.30200
N2855       N  0.82000857  0.97252716  0.74912453     0.14000
C2856       C  0.83068220  0.95939103  0.71731888    -0.30200
C2857       C  0.84670623  0.86960697  0.78037494    -0.30400
N2858       N  0.83638813  0.85616267  0.74910921     0.14600
H2859       H  0.84001612  0.86562182  0.80958196     0.17200
C2860       C  0.84606123  0.86937311  0.71738290    -0.30500
H2861       H  0.83811490  0.86553085  0.68869467     0.17200
H2862       H  0.82404539  0.96364914  0.68814383     0.17200
H2863       H  0.92597494  0.95279145  0.80714130     0.17300
H2864       H  0.82891780  0.96727995  0.80985020     0.17200
O2865       O  0.97970695  0.97154346  0.97560723    -0.77400
C2866       C  0.51959345  0.52798304  0.89287733     0.83600
O2867       O  0.57583516  0.98614425  0.52089252    -0.78500
O2868       O  0.56351731  0.58194584  0.97569735    -0.80000
O2869       O  0.96246586  0.56830104  0.51685838    -0.79800
O2870       O  0.95666122  0.99654959  0.52017680    -0.78500
Zn2871     Zn  0.51634982  0.99325125  0.96535344     1.55700
O2872       O  0.49109423  0.58991765  0.97549596    -0.79900
Cd2873     Cd  0.98367715  0.53051797  0.52751201     1.59700
Cd2874     Cd  0.55371234  0.52353650  0.52983669     1.59600
O2875       O  0.99399774  0.53077009  0.58402938    -0.79800
O2876       O  0.51942303  0.52689057  0.99671452    -1.90300
Cd2877     Cd  0.52460896  0.56207824  0.96630910     1.59900
O2878       O  0.54113230  0.52421446  0.58504561    -0.79800
O2879       O  0.52329002  0.55137106  0.90998293    -0.78500
C2880       C  0.57161443  0.96656086  0.99657920     0.84100
C2881       C  0.95851997  0.97511625  0.99807971     0.83700
O2882       O  0.51638417  0.00474003  0.91053682    -0.77400
C2883       C  0.96856214  0.58933133  0.49578312     0.84600
O2884       O  0.55041643  0.96726507  0.97372317    -0.77500
C2885       C  0.51738005  0.52754818  0.60175802     0.84700
C2886       C  0.58323043  0.57682636  0.99996619     0.85000
O2887       O  0.58177424  0.55623897  0.52329969    -0.79900
O2888       O  0.54821420  0.96619749  0.77129106    -0.77400
C2889       C  0.51928275  0.52794834  0.85139998     0.83600
O2890       O  0.95596391  0.99611893  0.72354801    -0.78500
O2891       O  0.49018900  0.58971831  0.76808216    -0.83600
O2892       O  0.58224297  0.55385812  0.72268879    -0.79800
O2893       O  0.57386201  0.98421740  0.72387884    -0.78500
Zn2894     Zn  0.51501888  0.99307972  0.77943809     1.55700
O2895       O  0.56336822  0.58131781  0.76813465    -0.79900
Cd2896     Cd  0.55303184  0.52221537  0.71529205     1.59700
Cd2897     Cd  0.98296243  0.52999803  0.71673661     1.59600
O2898       O  0.54079957  0.52364410  0.65999782    -0.79800
O2899       O  0.51858322  0.52644007  0.74785552    -1.90300
Cd2900     Cd  0.52396658  0.56195320  0.77761596     1.59900
O2901       O  0.99369098  0.53055364  0.66040723    -0.79800
O2902       O  0.52277393  0.55128682  0.83410338    -0.78500
C2903       C  0.95731210  0.97532450  0.74664966     0.84100
C2904       C  0.56926479  0.96489716  0.74831054     0.83700
O2905       O  0.51577912  0.00465561  0.83394754    -0.77400
C2906       C  0.58360811  0.57507153  0.74507576     0.84600
O2907       O  0.97810635  0.97213556  0.76981187    -0.77500
C2908       C  0.51720395  0.52733114  0.64299347     0.84700
C2909       C  0.96736728  0.58870748  0.74833184     0.85000
O2910       O  0.96122413  0.56742025  0.72768570    -0.79900
C2911       C  0.60749246  0.86987074  0.95809740     0.31100
C2912       C  0.60885560  0.87130834  0.53755642     0.31100
C2913       C  0.60402785  0.89941426  0.97692159    -0.05100
C2914       C  0.58506700  0.85289988  0.97907311    -0.05900
C2915       C  0.63530684  0.85902564  0.97722193    -0.05800
C2916       C  0.60486845  0.90018150  0.51727601    -0.05100
C2917       C  0.58571810  0.85356789  0.51896064    -0.05900
C2918       C  0.63609477  0.86002068  0.51749179    -0.05800
C2919       C  0.59708492  0.92728605  0.52817420    -0.31200
N2920       N  0.59005100  0.94222811  0.99631122     0.15300
C2921       C  0.59517824  0.92591618  0.96501092    -0.31200
H2922       H  0.59078631  0.93263157  0.93595234     0.17300
C2923       C  0.56542943  0.83532593  0.53184552    -0.30200
N2924       N  0.55260747  0.82373633  0.00078517     0.14000
C2925       C  0.56447139  0.83433835  0.96845264    -0.30200
C2926       C  0.66222046  0.84905587  0.52858185    -0.30400
N2927       N  0.67644769  0.84031187  0.99682142     0.14600
H2928       H  0.67012384  0.84642972  0.55751594     0.17200
C2929       C  0.66071321  0.84680102  0.96542771    -0.30500
H2930       H  0.66759547  0.84252272  0.93638650     0.17200
H2931       H  0.55905159  0.82834611  0.93934839     0.17200
H2932       H  0.59402550  0.93499635  0.55712784     0.17300
H2933       H  0.56136211  0.82978587  0.56144666     0.17200
C2934       C  0.60914377  0.86991331  0.70824364     0.31100
C2935       C  0.60846586  0.86927784  0.78776780     0.31100
C2936       C  0.60351134  0.89869985  0.72825439    -0.05100
C2937       C  0.58728154  0.85109164  0.72740082    -0.05900
C2938       C  0.63705232  0.86034819  0.72808706    -0.05800
C2939       C  0.60284899  0.89829645  0.76860736    -0.05100
C2940       C  0.58699959  0.85073494  0.76730647    -0.05900
C2941       C  0.63684835  0.86023997  0.76842971    -0.05800
C2942       C  0.59287176  0.92449726  0.78027479    -0.31200
N2943       N  0.58727444  0.94033440  0.74878335     0.15300
C2944       C  0.59466185  0.92539046  0.71706270    -0.31200
H2945       H  0.59149888  0.93296700  0.68812778     0.17300
C2946       C  0.56607962  0.83271854  0.77849246    -0.30200
N2947       N  0.55366622  0.82222949  0.74643021     0.14000
C2948       C  0.56648666  0.83328980  0.71506641    -0.30200
C2949       C  0.66296562  0.84952631  0.78000935    -0.30400
N2950       N  0.67803330  0.84190152  0.74840031     0.14600
H2951       H  0.67008920  0.84589102  0.80912281     0.17200
C2952       C  0.66298725  0.84921709  0.71674329    -0.30500
H2953       H  0.67041550  0.84576884  0.68773226     0.17200
H2954       H  0.56111892  0.82863240  0.68551114     0.17200
H2955       H  0.58840257  0.93145698  0.80922513     0.17300
H2956       H  0.56085228  0.82704818  0.80772826     0.17200
C2957       C  0.68126077  0.61184273  0.53682889     0.31100
C2958       C  0.67943925  0.61271776  0.95748027     0.31100
C2959       C  0.68791958  0.64048255  0.51751310    -0.05100
C2960       C  0.70124354  0.59122623  0.51591321    -0.05900
C2961       C  0.65217142  0.60529259  0.51829568    -0.05800
C2962       C  0.68715945  0.64095053  0.97726440    -0.05100
C2963       C  0.70039316  0.59155979  0.97604643    -0.05900
C2964       C  0.65106264  0.60620899  0.97806650    -0.05800
C2965       C  0.69434186  0.66804651  0.96609777    -0.31200
N2966       N  0.69995140  0.68354915  0.99797235     0.15300
C2967       C  0.69524667  0.66727675  0.52928270    -0.31200
H2968       H  0.69792985  0.67454073  0.55848964     0.17300
C2969       C  0.71977413  0.57143341  0.96340077    -0.30200
N2970       N  0.73229724  0.55903324  0.99452010     0.14000
C2971       C  0.72093836  0.57099101  0.52667656    -0.30200
C2972       C  0.62349752  0.59978095  0.96767547    -0.30400
N2973       N  0.60864463  0.59324515  0.99974603     0.14600
H2974       H  0.61512052  0.59818495  0.93886440     0.17200
C2975       C  0.62565104  0.59716683  0.53072149    -0.30500
H2976       H  0.61922515  0.59315165  0.55999202     0.17200
H2977       H  0.72682208  0.56560954  0.55586286     0.17200
H2978       H  0.69692841  0.67565052  0.93706332     0.17300
H2979       H  0.72405871  0.56597372  0.93376473     0.17200
C2980       C  0.68008480  0.61244234  0.78658574     0.31100
C2981       C  0.68138391  0.61109198  0.70725429     0.31100
C2982       C  0.68669580  0.64072444  0.76643633    -0.05100
C2983       C  0.70164949  0.59198307  0.76805255    -0.05900
C2984       C  0.65183999  0.60464009  0.76642009    -0.05800
C2985       C  0.68739574  0.64019665  0.72618947    -0.05100
C2986       C  0.70225279  0.59124184  0.72821347    -0.05900
C2987       C  0.65258328  0.60381825  0.72618906    -0.05800
C2988       C  0.69500485  0.66712380  0.71447014    -0.31200
N2989       N  0.69960288  0.68333030  0.74603485     0.15300
C2990       C  0.69393004  0.66766314  0.77763399    -0.31200
H2991       H  0.69626219  0.67525358  0.80676081     0.17300
C2992       C  0.72276779  0.57164699  0.71776026    -0.30200
N2993       N  0.73476191  0.56046664  0.75009176     0.14000
C2994       C  0.72201818  0.57304681  0.78096188    -0.30200
C2995       C  0.62591931  0.59561980  0.71414996    -0.30400
N2996       N  0.60931788  0.59112722  0.74534579     0.14600
H2997       H  0.61900322  0.59235001  0.68488973     0.17200
C2998       C  0.62453083  0.59740811  0.77725100    -0.30500
H2999       H  0.61643683  0.59544465  0.80614800     0.17200
H3000       H  0.72739143  0.56926487  0.81072528     0.17200
H3001       H  0.69871699  0.67414368  0.68540769     0.17300
H3002       H  0.72818747  0.56569398  0.68862031     0.17200
O3003       O  0.74003804  0.76927613  0.91208798    -0.77400
C3004       C  0.71634734  0.70888932  0.99873338     0.83600
O3005       O  0.72228021  0.82912347  0.51814236    -0.78500
O3006       O  0.76717823  0.75042692  0.58594939    -0.80000
O3007       O  0.82622782  0.74215344  0.97332078    -0.79800
O3008       O  0.78695086  0.77614187  0.91029225    -0.78500
Zn3009     Zn  0.72945115  0.76768705  0.96712878     1.55700
O3010       O  0.80734577  0.71760565  0.52119225    -0.79900
Cd3011     Cd  0.79877469  0.77629245  0.96591898     1.59700
Cd3012     Cd  0.76052292  0.80825349  0.52869591     1.59600
O3013       O  0.82032733  0.81383947  0.97507096    -0.79800
O3014       O  0.76382108  0.77278394  0.99750873    -1.90300
Cd3015     Cd  0.76897755  0.73861480  0.53015169     1.59900
O3016       O  0.79460822  0.83555095  0.52026346    -0.79800
O3017       O  0.73720920  0.70994039  0.52188217    -0.78500
C3018       C  0.70130809  0.82252160  0.99697197     0.84100
C3019       C  0.76313388  0.77286824  0.89404854     0.83700
O3020       O  0.71069405  0.72917775  0.97571530    -0.77400
C3021       C  0.82697894  0.72146941  0.49672814     0.84600
O3022       O  0.70143939  0.79998460  0.97674609    -0.77500
C3023       C  0.81600486  0.83464768  0.49773671     0.84700
C3024       C  0.76326101  0.77393002  0.60283304     0.85000
O3025       O  0.76014074  0.79736066  0.58544094    -0.79900
O3026       O  0.71037167  0.72938069  0.72479418    -0.77400
C3027       C  0.70238809  0.82344208  0.74850617     0.83600
O3028       O  0.78739220  0.77590676  0.66041107    -0.78500
O3029       O  0.79524332  0.83460114  0.77185482    -0.80000
O3030       O  0.76509249  0.74920977  0.83606135    -0.79800
O3031       O  0.73729175  0.70913729  0.76981117    -0.78500
Zn3032     Zn  0.72940115  0.76824374  0.71707575     1.55700
O3033       O  0.76119110  0.79643785  0.83587513    -0.79900
Cd3034     Cd  0.76838980  0.73808084  0.78014886     1.59700
Cd3035     Cd  0.79862283  0.77576277  0.71631857     1.59600
O3036       O  0.80729586  0.71782732  0.77309851    -0.79800
O3037       O  0.76369479  0.77245943  0.74776002    -1.90300
Cd3038     Cd  0.76113618  0.80763973  0.77959292     1.59900
O3039       O  0.82590046  0.74178948  0.72446823    -0.79800
O3040       O  0.72342013  0.82935688  0.76989343    -0.78500
C3041       C  0.76350609  0.77387675  0.64393912     0.84100
C3042       C  0.71624471  0.70855824  0.74693566     0.83700
O3043       O  0.70204739  0.80108649  0.72784913    -0.77400
C3044       C  0.76271158  0.77283786  0.85306088     0.84600
O3045       O  0.74022027  0.77096048  0.66186423    -0.77500
C3046       C  0.82689381  0.72157717  0.74857979     0.84700
C3047       C  0.81641372  0.83356897  0.74907413     0.85000
O3048       O  0.82031627  0.81295360  0.72600362    -0.79900
C3049       C  0.70083123  0.62664285  0.89258683    -0.20200
C3050       C  0.68011396  0.61171609  0.91316383    -0.08300
C3051       C  0.66445565  0.59181689  0.89190296     0.30600
C3052       C  0.66451635  0.59225052  0.85159239    -0.20200
C3053       C  0.68089826  0.61171401  0.83093866    -0.08300
C3054       C  0.70169414  0.62617923  0.85224780     0.30600
F3055       F  0.72424767  0.63795781  0.83453179    -0.18800
H3056       H  0.71741496  0.63763424  0.90767874     0.18900
H3057       H  0.65300821  0.57599550  0.83671272     0.18900
F3058       F  0.65117366  0.57020714  0.90956697    -0.18800
C3059       C  0.66888802  0.58896960  0.60144037    -0.20200
C3060       C  0.68357067  0.60988308  0.58103567    -0.08300
C3061       C  0.70396645  0.62500783  0.60224264     0.30600
C3062       C  0.70339748  0.62507102  0.64258292    -0.20200
C3063       C  0.68348465  0.60907389  0.66304970    -0.08300
C3064       C  0.66934063  0.58808711  0.64177514     0.30600
F3065       F  0.65779735  0.56550333  0.65949420    -0.18800
H3066       H  0.65792039  0.57247143  0.58621956     0.18900
H3067       H  0.71953302  0.63666858  0.65769301     0.18900
F3068       F  0.72598294  0.63769766  0.58449497    -0.18800
C3069       C  0.61937176  0.84604923  0.89340940    -0.20200
C3070       C  0.60515491  0.86771077  0.91389205    -0.08300
C3071       C  0.58498106  0.88358565  0.89266335     0.30600
C3072       C  0.58581957  0.88368850  0.85232790    -0.20200
C3073       C  0.60616186  0.86743429  0.83196849    -0.08300
C3074       C  0.61957773  0.84559312  0.85310040     0.30600
F3075       F  0.63044627  0.82236902  0.83525768    -0.18800
H3076       H  0.62894543  0.82839396  0.90834466     0.18900
H3077       H  0.56942036  0.89529038  0.83720925     0.18900
F3078       F  0.56290089  0.89690394  0.91037223    -0.18800
C3079       C  0.62174163  0.84840968  0.60213790    -0.20200
C3080       C  0.60763925  0.87021026  0.58185149    -0.08300
C3081       C  0.58757116  0.88621853  0.60318077     0.30600
C3082       C  0.58795717  0.88581310  0.64351971    -0.20200
C3083       C  0.60764355  0.86885757  0.66391346    -0.08300
C3084       C  0.62125901  0.84729471  0.64239494     0.30600
F3085       F  0.63144450  0.82357059  0.65963194    -0.18800
H3086       H  0.63160418  0.83095590  0.58696618     0.18900
H3087       H  0.57159325  0.89755033  0.65858636     0.18900
F3088       F  0.56584737  0.90008912  0.58549146    -0.18800
C3089       C  0.77986620  0.99775635  0.78056995    -0.20200
C3090       C  0.79901650  0.49518074  0.74973318    -0.08300
C3091       C  0.79727364  0.51517259  0.71983516     0.30600
C3092       C  0.77649254  0.53662758  0.72052698    -0.20200
C3093       C  0.75691939  0.53888861  0.75094112    -0.08300
C3094       C  0.75907241  0.51923814  0.78129601     0.30600
F3095       F  0.74046727  0.51988842  0.81101251    -0.18800
H3096       H  0.78051277  0.98262052  0.80384127     0.18900
H3097       H  0.77592187  0.55173730  0.69723623     0.18900
F3098       F  0.81609062  0.51458415  0.69034833    -0.18800
C3099       C  0.79704409  0.51580644  0.96733561    -0.20200
C3100       C  0.79729666  0.49479112  0.99586946    -0.08300
C3101       C  0.77526552  0.99493569  0.52328978     0.30600
C3102       C  0.75397895  0.51588617  0.52240234    -0.20200
C3103       C  0.75390079  0.53703612  0.99410523    -0.08300
C3104       C  0.77565738  0.53669870  0.96637991     0.30600
F3105       F  0.77697164  0.55719852  0.93928661    -0.18800
H3106       H  0.81383858  0.51643398  0.94615190     0.18900
H3107       H  0.73724615  0.51539697  0.54369390     0.18900
F3108       F  0.77370545  0.97440732  0.55032132    -0.18800
C3109       C  0.89752261  0.91254001  0.89354054    -0.20200
C3110       C  0.87235599  0.91807207  0.91425225    -0.08300
C3111       C  0.84677474  0.91895810  0.89302869     0.30600
C3112       C  0.84711938  0.91918778  0.85266991    -0.20200
C3113       C  0.87279775  0.91764997  0.83196064    -0.08300
C3114       C  0.89777481  0.91182550  0.85326864     0.30600
F3115       F  0.92228435  0.90379884  0.83565910    -0.18800
H3116       H  0.91713741  0.90766519  0.90842416     0.18900
H3117       H  0.82704843  0.92015881  0.83753992     0.18900
F3118       F  0.82126384  0.91879822  0.91108853    -0.18800
C3119       C  0.87859679  0.89548628  0.60209516    -0.20200
C3120       C  0.87306078  0.92076765  0.58191860    -0.08300
C3121       C  0.87203717  0.94594450  0.60372633     0.30600
C3122       C  0.87142225  0.94507228  0.64408555    -0.20200
C3123       C  0.87287969  0.91925456  0.66421061    -0.08300
C3124       C  0.87904081  0.89471866  0.64235244     0.30600
F3125       F  0.88726903  0.87019761  0.65942777    -0.18800
H3126       H  0.88354027  0.87614585  0.58673529     0.18900
H3127       H  0.87049574  0.96485998  0.65968068     0.18900
F3128       F  0.87280843  0.97153162  0.58631457    -0.18800
C3129       C  0.99027248  0.77993691  0.77291040    -0.20200
C3130       C  0.99186841  0.75819039  0.74552526    -0.08300
C3131       C  0.51365596  0.75821608  0.71798463     0.30600
C3132       C  0.53357404  0.77961095  0.71811124    -0.20200
C3133       C  0.53218883  0.80119075  0.74570114    -0.08300
C3134       C  0.51020693  0.80139221  0.77299749     0.30600
F3135       F  0.50765027  0.82258685  0.79913136    -0.18800
H3136       H  0.97334523  0.78042855  0.79397463     0.18900
H3137       H  0.55064757  0.77889035  0.69727953     0.18900
F3138       F  0.51643408  0.73695605  0.69200672    -0.18800
C3139       C  0.98972206  0.78085891  0.52836124    -0.20200
C3140       C  0.49142588  0.75902393  0.00110825    -0.08300
C3141       C  0.51393922  0.75838075  0.97465906     0.30600
C3142       C  0.53395513  0.77965930  0.97490155    -0.20200
C3143       C  0.53202901  0.80180032  0.00160675    -0.08300
C3144       C  0.50989070  0.80217499  0.52868229     0.30600
F3145       F  0.50723247  0.82357544  0.55447855    -0.18800
H3146       H  0.97242329  0.78165477  0.54884842     0.18900
H3147       H  0.55128856  0.77865976  0.95449077     0.18900
F3148       F  0.51706933  0.73674720  0.94930969    -0.18800
C3149       C  0.94681471  0.67113318  0.89309663    -0.20200
C3150       C  0.92538022  0.68566085  0.91370886    -0.08300
C3151       C  0.90979155  0.70609361  0.89265683     0.30600
C3152       C  0.90925455  0.70512962  0.85233342    -0.20200
C3153       C  0.92530173  0.68476131  0.83183002    -0.08300
C3154       C  0.94719211  0.67109515  0.85278940     0.30600
F3155       F  0.97037883  0.66007446  0.83482526    -0.18800
H3156       H  0.96437521  0.66114811  0.90797473     0.18900
H3157       H  0.89742658  0.72138373  0.83726258     0.18900
F3158       F  0.89727703  0.72849584  0.91052591    -0.18800
C3159       C  0.94435744  0.66848298  0.64317725    -0.20200
C3160       C  0.92322560  0.68338893  0.66382666    -0.08300
C3161       C  0.90762004  0.70382961  0.64267684     0.30600
C3162       C  0.90718580  0.70300456  0.60234118    -0.20200
C3163       C  0.92350044  0.68294247  0.58170880    -0.08300
C3164       C  0.94504397  0.66884339  0.60286655     0.30600
F3165       F  0.96842524  0.65799613  0.58519776    -0.18800
H3166       H  0.96157025  0.65795871  0.65810872     0.18900
H3167       H  0.89539909  0.71931499  0.58735224     0.18900
F3168       F  0.89516796  0.72633020  0.66038966    -0.18800
loop_ 
_geom_bond_atom_site_label_1 
_geom_bond_atom_site_label_2 
_geom_bond_distance 
_geom_bond_site_symmetry_2 
_ccdc_geom_bond_type 
C1            C3   1.547       .  S
C1            C5   1.549       .  S
C1            C4   1.522       .  S
C1          C378   1.546       .  S
C2            C6   1.547       .  S
C2            C8   1.549       .  S
C2            C7   1.529       .  S
C2          C391   1.545       .  S
C3           C11   1.380       .  A
C3          C402   1.403       .  A
C4           C15   1.367       .  A
C4          C403   1.390       .  A
C5           C19   1.379       .  A
C5          C404   1.406       .  A
C6            C9   1.381       .  A
C6          C399   1.403   1_554  A
C7           C13   1.373       .  A
C7          C400   1.390   1_554  A
C8           C16   1.382       .  A
C8          C401   1.406   1_554  A
C9           N10   1.353   1_554  A
C9           H22   1.081       .  S
N10         C407   1.352       .  A
N10         C111   1.428       .  S
C11         N406   1.352       .  A
C11          H12   1.080       .  S
C13         N410   1.357       .  A
C13          H23   1.082       .  S
N14          C15   1.356       .  A
N14         C409   1.357       .  A
N14        C1952   1.430       .  S
C15          H21   1.082       .  S
C16          N17   1.355   1_554  A
C16          H18   1.080       .  S
N17         C415   1.354       .  A
N17         C249   1.432       .  S
C19         N413   1.354       .  A
C19          H20   1.080       .  S
C24          C26   1.549       .  S
C24          C28   1.544       .  S
C24          C27   1.526       .  S
C24         C388   1.546       .  S
C25          C29   1.547       .  S
C25          C31   1.549       .  S
C25          C30   1.524       .  S
C25         C381   1.544       .  S
C26          C34   1.382       .  A
C26          C29   1.405       .  A
C27          C38   1.369       .  A
C27          C30   1.389       .  A
C28          C42   1.376       .  A
C28          C31   1.405       .  A
C29          C32   1.379       .  A
C30          C36   1.370       .  A
C31          C39   1.383       .  A
C32          N33   1.353       .  A
C32          H45   1.081       .  S
N33          C34   1.354       .  A
N33         C137   1.429       .  S
C34          H35   1.080       .  S
C36          N37   1.357       .  A
C36          H46   1.083       .  S
N37          C38   1.357       .  A
N37         C358   1.430       .  S
C38          H44   1.082       .  S
C39          N40   1.355       .  A
C39          H41   1.081       .  S
N40          C42   1.353       .  A
N40         C274   1.429       .  S
C42          H43   1.080       .  S
C47          C49   1.549       .  S
C47          C51   1.541       .  S
C47          C50   1.549       .  S
C47         C338   1.544       .  S
C48          C52   1.543       .  S
C48          C54   1.546       .  S
C48          C53   1.541       .  S
C48         C348   1.544       .  S
C49          C57   1.389       .  A
C49         C448   1.407       .  A
C50          C61   1.382       .  A
C50         C449   1.396       .  A
C51          C65   1.385       .  A
C51         C450   1.400       .  A
C52          C55   1.387       .  A
C52         C445   1.407   1_554  A
C53          C59   1.379       .  A
C53         C446   1.396   1_554  A
C54          C62   1.388       .  A
C54         C447   1.400   1_554  A
C55         N452   1.355   1_554  A
C55          H68   1.082       .  S
N56          C57   1.353       .  A
N56         C451   1.355       .  A
N56         C109   1.439       .  S
C57          H58   1.082       .  S
C59         N456   1.360   1_554  A
C59          H69   1.081       .  S
N60          C61   1.361       .  A
N60         C455   1.360       .  A
N60        C1120   1.447       .  S
C61          H67   1.081       .  S
C62         N459   1.355   1_554  A
C62          H64   1.082       .  S
N63          C65   1.356       .  A
N63         C458   1.355       .  A
N63         C647   1.439       .  S
C65          H66   1.082       .  S
C70          C72   1.538       .  S
C70          C74   1.547       .  S
C70          C73   1.545       .  S
C70         C351   1.545       .  S
C71          C75   1.546       .  S
C71          C77   1.538       .  S
C71          C76   1.545       .  S
C71         C341   1.544       .  S
C72          C80   1.385       .  A
C72          C75   1.405       .  A
C73          C84   1.379       .  A
C73          C76   1.396       .  A
C74          C88   1.385       .  A
C74          C77   1.405       .  A
C75          C78   1.386       .  A
C76          C82   1.380       .  A
C77          C85   1.385       .  A
C78          N79   1.352       .  A
C78          H91   1.082       .  S
N79          C80   1.354       .  A
N79         C131   1.435       .  S
C80          H81   1.083       .  S
C82          N83   1.361       .  A
C82          H92   1.081       .  S
N83          C84   1.362       .  A
N83        C1110   1.448       .  S
C84          H90   1.081       .  S
C85          N86   1.353       .  A
C85          H87   1.082       .  S
N86          C88   1.353       .  A
N86         C275   1.434       .  S
C88          H89   1.082       .  S
O93         C109   1.277       .  A
O93       Zn1683   2.053       .  S
C94         O107   1.270       .  A
C94         O902   1.272       .  A
C94         C117   1.444       .  S
O95         C504   1.272   1_554  A
O95        Cd894   2.063       .  S
O96         C114   1.276       .  A
O96        Cd105   2.097       .  S
O97         C111   1.274   1_554  A
O97        Cd101   2.069       .  S
O98         C505   1.274   1_554  A
O98        Cd893   2.080       .  S
Zn99        O110   1.985       .  S
Zn99        O112   2.028       .  S
Zn99       O1677   2.053   1_455  S
Zn99        O896   1.936       .  S
O100       C2091   1.276       .  A
O100       Cd105   2.066   1_655  S
Cd101       O103   2.027       .  S
Cd101       O890   2.080   1_545  S
Cd101      O2084   2.001   1_554  S
Cd102       O106   2.012       .  S
Cd102       O115   2.063       .  S
Cd102       O887   2.063   1_545  S
Cd102       O500   1.988   1_554  S
O103       C1697   1.269       .  A
O104       Zn891   1.936   1_545  S
O104       Cd105   1.993       .  S
O104      Cd2081   2.001   1_455  S
O104       Cd498   1.988       .  S
Cd105       O107   2.026       .  S
O106        C113   1.269       .  A
C108        N148   1.432       .  S
C108        O112   1.276       .  A
C108        O491   1.272       .  A
C109        O494   1.274       .  A
O110        C886   1.272       .  A
C111       O2080   1.276       .  A
C113       O1687   1.269   1_455  A
C113        C136   1.436       .  S
C114        N201   1.436       .  S
C114        O511   1.272       .  A
O115        C510   1.272   1_554  A
O116        C132   1.275       .  A
O116       Zn122   2.021       .  S
C117        O130   1.272       .  A
C117        O925   1.271       .  A
O118        C131   1.273       .  A
O118       Cd917   2.075       .  S
O119       C1721   1.277       .  A
O119       Cd128   2.075   1_655  S
O120        C134   1.272       .  A
O120       Cd124   2.064       .  S
O121        C132   1.271       .  A
O121       Cd916   2.058       .  S
Zn122       O133   1.975       .  S
Zn122      O1719   2.041   1_455  S
Zn122       O919   1.935       .  S
O123        C134   1.277       .  A
O123       Cd128   2.108       .  S
Cd124       O126   2.010       .  S
Cd124       O913   2.058   1_545  S
Cd124       O127   1.987       .  S
Cd125       O129   2.026       .  S
Cd125       O138   2.067       .  S
Cd125       O910   2.075   1_545  S
Cd125      O1711   2.002       .  S
O126        C136   1.269       .  A
O127       Zn914   1.935   1_545  S
O127       Cd128   1.992       .  S
O127      Cd1709   2.002   1_455  S
Cd128       O130   2.032       .  S
O129       C1720   1.270       .  A
C131        O135   1.276       .  A
C132        N171   1.429       .  S
O133        C909   1.271       .  A
C134        N224   1.439       .  S
O135      Zn1706   2.041       .  S
C136       O1713   1.270   1_455  A
C137        O138   1.273       .  A
C137       O1703   1.277       .  A
C139        C141   1.550       .  S
C139        C143   1.550       .  S
C139        C142   1.524       .  S
C139        C298   1.546       .  S
C140        C144   1.548       .  S
C140        C146   1.549       .  S
C140        C145   1.528       .  S
C140        C308   1.544       .  S
C141        C149   1.380       .  A
C141        C540   1.406       .  A
C142        C153   1.368       .  A
C142        C541   1.389       .  A
C143        C157   1.383       .  A
C143        C542   1.403       .  A
C144        C147   1.381       .  A
C144        C537   1.406   1_554  A
C145        C151   1.373       .  A
C145        C538   1.389   1_554  A
C146        C154   1.383       .  A
C146        C539   1.403   1_554  A
C147        N544   1.355   1_554  A
C147        H160   1.080       .  S
N148        C149   1.354       .  A
N148        C543   1.355       .  A
C149        H150   1.080       .  S
C151        N548   1.357       .  A
C151        H161   1.082       .  S
N152        C153   1.357       .  A
N152        C547   1.357       .  A
N152        C371   1.431       .  S
C153        H159   1.083       .  S
C154        N551   1.354   1_554  A
C154        H156   1.080       .  S
N155        C157   1.353       .  A
N155        C550   1.354       .  A
N155        C246   1.432       .  S
C157        H158   1.080       .  S
C162        C164   1.548       .  S
C162        C166   1.547       .  S
C162        C165   1.526       .  S
C162        C311   1.546       .  S
C163        C167   1.547       .  S
C163        C169   1.551       .  S
C163        C168   1.524       .  S
C163        C301   1.545       .  S
C164        C172   1.381       .  A
C164        C167   1.405       .  A
C165        C176   1.370       .  A
C165        C168   1.389       .  A
C166        C180   1.380       .  A
C166        C169   1.405       .  A
C167        C170   1.380       .  A
C168        C174   1.369       .  A
C169        C177   1.384       .  A
C170        N171   1.353       .  A
C170        H183   1.080       .  S
N171        C172   1.353       .  A
C172        H173   1.079       .  S
C174        N175   1.356       .  A
C174        H184   1.082       .  S
N175        C176   1.357       .  A
N175        C361   1.430       .  S
C176        H182   1.082       .  S
C177        N178   1.355       .  A
C177        H179   1.081       .  S
N178        C180   1.353       .  A
N178        C255   1.431       .  S
C180        H181   1.080       .  S
C185        C187   1.550       .  S
C185        C189   1.549       .  S
C185        C188   1.529       .  S
C185        C288   1.546       .  S
C186        C190   1.550       .  S
C186        C192   1.552       .  S
C186        C191   1.538       .  S
C186        C278   1.544       .  S
C187        C195   1.380       .  A
C187        C586   1.402   1_554  A
C188        C199   1.376       .  A
C188        C587   1.389   1_554  A
C189        C203   1.382       .  A
C189        C588   1.402   1_554  A
C190        C193   1.387       .  A
C190        C583   1.402       .  A
C191        C197   1.381       .  A
C191        C584   1.389       .  A
C192        C200   1.385       .  A
C192        C585   1.402       .  A
C193        N194   1.357       .  A
C193        H206   1.081       .  S
N194        C591   1.356       .  A
N194        C232   1.436       .  S
C195        N590   1.356   1_554  A
C195        H196   1.081       .  S
C197        N198   1.363       .  A
C197        H207   1.081       .  S
N198        C595   1.360       .  A
N198        C331   1.445       .  S
C199        N594   1.360   1_554  A
C199        H205   1.083       .  S
C200        N201   1.356       .  A
C200        H202   1.081       .  S
N201        C599   1.357       .  A
C203        N597   1.357   1_554  A
C203        H204   1.081       .  S
C208        C210   1.548       .  S
C208        C212   1.553       .  S
C208        C211   1.534       .  S
C208        C281   1.545       .  S
C209        C213   1.556       .  S
C209        C215   1.552       .  S
C209        C214   1.535       .  S
C209        C291   1.545       .  S
C210        C218   1.380       .  A
C210        C213   1.402       .  A
C211        C222   1.379       .  A
C211        C214   1.388       .  A
C212        C226   1.388       .  A
C212        C215   1.401       .  A
C213        C216   1.391       .  A
C214        C220   1.378       .  A
C215        C223   1.384       .  A
C216        N217   1.358       .  A
C216        H229   1.081       .  S
N217        C218   1.357       .  A
N217        C270   1.438       .  S
C218        H219   1.081       .  S
C220        N221   1.363       .  A
C220        H230   1.082       .  S
N221        C222   1.363       .  A
N221        C321   1.450       .  S
C222        H228   1.081       .  S
C223        N224   1.357       .  A
C223        H225   1.081       .  S
N224        C226   1.356       .  A
C226        H227   1.081       .  S
O231        C247   1.270       .  A
O231       Zn237   1.982       .  S
C232        O248   1.277       .  A
C232        O641   1.272       .  A
O233        C642   1.274   1_554  A
O233       Cd240   2.074       .  S
O234        C252   1.268       .  A
O234       Cd243   2.022       .  S
O235        C645   1.275       .  A
O235       Cd239   2.071       .  S
O236        C247   1.267       .  A
O236       Cd239   2.015       .  S
Zn237       O248   2.059       .  S
Zn237       O250   2.032       .  S
Zn237       O242   1.951       .  S
O238        C249   1.273   1_554  A
O238       Cd243   2.073       .  S
Cd239       O241   2.083       .  S
Cd239       O242   1.989       .  S
Cd240       O244   2.096       .  S
Cd240       O253   2.043       .  S
Cd240       O638   2.002   1_554  S
O241        C647   1.275       .  A
O242       Cd636   2.002       .  S
O242       Cd639   1.990       .  S
Cd243       O245   2.054       .  S
Cd243       O638   1.990   1_554  S
O244        C251   1.277   1_554  A
O245        C628   1.272   1_554  A
C246        O250   1.277       .  A
C246        O629   1.274       .  A
C247        C272   1.427       .  S
C249        O631   1.275       .  A
C251        N459   1.439       .  S
C251        O637   1.275       .  A
C252        O253   1.271       .  A
C252        C269   1.431       .  S
O254        C270   1.279       .  A
O254       Zn260   2.076       .  S
C255        O271   1.278       .  A
C255        O268   1.273       .  A
O256        C269   1.267       .  A
O256       Cd263   2.017       .  S
O257        C275   1.274       .  A
O257       Cd266   2.084       .  S
O258        C272   1.268       .  A
O258       Cd262   2.021       .  S
O259        C270   1.272       .  A
O259       Cd262   2.051       .  S
Zn260       O271   2.038       .  S
Zn260       O273   1.994       .  S
Zn260       O265   1.948       .  S
O261        C272   1.269       .  A
O261       Cd266   2.031       .  S
Cd262       O264   2.070       .  S
Cd262       O265   1.991       .  S
Cd263       O267   2.063       .  S
Cd263       O276   2.075       .  S
Cd263       O265   1.984       .  S
O264        C274   1.272       .  A
O265       Cd266   2.001       .  S
Cd266       O268   2.067       .  S
O267        C274   1.274       .  A
C269        O273   1.271       .  A
C275        O276   1.274       .  A
C277        C278   1.409       .  A
C277        C282   1.405       .  A
C277        H284   1.080       .  S
C278        C279   1.413       .  A
C279        C280   1.404       .  A
C279        F286   1.355       .  S
C280        C281   1.409       .  A
C280        H285   1.079       .  S
C281        C282   1.413       .  A
C282        F283   1.356       .  S
C287        C288   1.409       .  A
C287        C292   1.405       .  A
C287        H294   1.080       .  S
C288        C289   1.413       .  A
C289        C290   1.405       .  A
C289        F296   1.356       .  S
C290        C291   1.408       .  A
C290        H295   1.080       .  S
C291        C292   1.412       .  A
C292        F293   1.356       .  S
C297        C298   1.409       .  A
C297        C302   1.403       .  A
C297        H304   1.078       .  S
C298        C299   1.412       .  A
C299        C300   1.405       .  A
C299        F306   1.356       .  S
C300        C301   1.410       .  A
C300        H305   1.078       .  S
C301        C302   1.411       .  A
C302        F303   1.355       .  S
C307        C308   1.409       .  A
C307        C312   1.403       .  A
C307        H314   1.079       .  S
C308        C309   1.413       .  A
C309        C310   1.405       .  A
C309        F316   1.356       .  S
C310        C311   1.410       .  A
C310        H315   1.079       .  S
C311        C312   1.411       .  A
C312        F313   1.355       .  S
C317       C1110   1.406       .  A
C317       C1114   1.401       .  A
C317        H324   1.082       .  S
C318        C319   1.409   1_565  A
C318       C1109   1.406       .  A
C318        N875   1.448       .  S
C319        C320   1.400       .  A
C319        F326   1.356       .  S
C320        C321   1.407       .  A
C320        H325   1.082       .  S
C321        C322   1.412       .  A
C322       C1109   1.401   1_545  A
C322        F323   1.356       .  S
C327        C328   1.407   1_545  A
C327        C332   1.401       .  A
C327        H334   1.082       .  S
C328       C1517   1.410       .  A
C328        N852   1.447       .  S
C329       C1516   1.410   1_554  A
C329       C1122   1.400       .  A
C329        F336   1.357       .  S
C330       C1121   1.400   1_545  A
C330        C727   1.406   1_554  A
C330        H335   1.083       .  S
C331        C332   1.408       .  A
C331        C726   1.406       .  A
C332        F333   1.356       .  S
C337        C338   1.408       .  A
C337        C342   1.402       .  A
C337        H344   1.081       .  S
C338        C339   1.413       .  A
C339        C340   1.405       .  A
C339        F346   1.356       .  S
C340        C341   1.409       .  A
C340        H345   1.082       .  S
C341        C342   1.414       .  A
C342        F343   1.356       .  S
C347        C348   1.409       .  A
C347        C352   1.402       .  A
C347        H354   1.082       .  S
C348        C349   1.412       .  A
C349        C350   1.406       .  A
C349        F356   1.356       .  S
C350        C351   1.410       .  A
C350        H355   1.082       .  S
C351        C352   1.414       .  A
C352        F353   1.356       .  S
C357        C358   1.403       .  A
C357       C1946   1.393       .  A
C357        H364   1.083       .  S
C358       C1943   1.405       .  A
C359        C360   1.390       .  A
C359       C1942   1.405   1_455  A
C359        F366   1.357       .  S
C360        C361   1.402       .  A
C360        H365   1.083       .  S
C361        C362   1.405       .  A
C362       C1941   1.393   1_455  A
C362        F363   1.357       .  S
C367       C2348   1.403       .  A
C367       C1956   1.396       .  A
C367        H374   1.083       .  S
C368        C369   1.404   1_655  A
C368       C2347   1.403       .  A
C368       N1598   1.430       .  S
C369        C370   1.389       .  A
C369        F376   1.357       .  S
C370        C371   1.402       .  A
C370        H375   1.083       .  S
C371        C768   1.406       .  A
C372       C1951   1.396   1_455  A
C372        C767   1.406       .  A
C372        F373   1.357       .  S
C377        C378   1.409       .  A
C377        C382   1.403       .  A
C377        H384   1.079       .  S
C378        C379   1.411       .  A
C379        C380   1.405       .  A
C379        F386   1.356       .  S
C380        C381   1.409       .  A
C380        H385   1.080       .  S
C381        C382   1.412       .  A
C382        F383   1.356       .  S
C387        C388   1.408       .  A
C387        C392   1.404       .  A
C387        H394   1.079       .  S
C388        C389   1.414       .  A
C389        C390   1.405       .  A
C389        F396   1.356       .  S
C390        C391   1.409       .  A
C390        H395   1.079       .  S
C391        C392   1.414       .  A
C392        F393   1.355       .  S
C397        C399   1.547       .  S
C397        C401   1.549       .  S
C397        C400   1.522       .  S
C397        C774   1.546       .  S
C398        C402   1.547       .  S
C398        C404   1.549       .  S
C398        C403   1.529       .  S
C398        C787   1.545       .  S
C399        C407   1.380       .  A
C400        C411   1.367       .  A
C401        C415   1.379       .  A
C402        C405   1.381       .  A
C403        C409   1.373       .  A
C404        C412   1.382       .  A
C405        N406   1.353       .  A
C405        H418   1.081       .  S
N406        C507   1.428       .  S
C407        H408   1.080       .  S
C409        H419   1.082       .  S
N410        C411   1.356   1_554  A
N410       C2348   1.430       .  S
C411        H417   1.082       .  S
C412        N413   1.355       .  A
C412        H414   1.080       .  S
N413        C645   1.432       .  S
C415        H416   1.080       .  S
C420        C422   1.549       .  S
C420        C424   1.544       .  S
C420        C423   1.526       .  S
C420        C784   1.546       .  S
C421        C425   1.547       .  S
C421        C427   1.549       .  S
C421        C426   1.524       .  S
C421        C777   1.544       .  S
C422        C430   1.382       .  A
C422        C425   1.405       .  A
C423        C434   1.369       .  A
C423        C426   1.389       .  A
C424        C438   1.376       .  A
C424        C427   1.405       .  A
C425        C428   1.379       .  A
C426        C432   1.370       .  A
C427        C435   1.383       .  A
C428        N429   1.353       .  A
C428        H441   1.081       .  S
N429        C430   1.354       .  A
N429        C533   1.429       .  S
C430        H431   1.080       .  S
C432        N433   1.357       .  A
C432        H442   1.083       .  S
N433        C434   1.357       .  A
N433        C754   1.430       .  S
C434        H440   1.082       .  S
C435        N436   1.355       .  A
C435        H437   1.081       .  S
N436        C438   1.353       .  A
N436        C670   1.429       .  S
C438        H439   1.080       .  S
C443        C445   1.549       .  S
C443        C447   1.541       .  S
C443        C446   1.549       .  S
C443        C734   1.544       .  S
C444        C448   1.543       .  S
C444        C450   1.546       .  S
C444        C449   1.541       .  S
C444        C744   1.544       .  S
C445        C453   1.389       .  A
C446        C457   1.382       .  A
C447        C461   1.385       .  A
C448        C451   1.387       .  A
C449        C455   1.379       .  A
C450        C458   1.388       .  A
C451        H464   1.082       .  S
N452        C453   1.353       .  A
N452        C505   1.439       .  S
C453        H454   1.082       .  S
C455        H465   1.081       .  S
N456        C457   1.361       .  A
N456       C1516   1.447       .  S
C457        H463   1.081       .  S
C458        H460   1.082       .  S
N459        C461   1.356       .  A
C461        H462   1.082       .  S
C466        C468   1.538       .  S
C466        C470   1.547       .  S
C466        C469   1.545       .  S
C466        C747   1.545       .  S
C467        C471   1.546       .  S
C467        C473   1.538       .  S
C467        C472   1.545       .  S
C467        C737   1.544       .  S
C468        C476   1.385       .  A
C468        C471   1.405       .  A
C469        C480   1.379       .  A
C469        C472   1.396       .  A
C470        C484   1.385       .  A
C470        C473   1.405       .  A
C471        C474   1.386       .  A
C472        C478   1.380       .  A
C473        C481   1.385       .  A
C474        N475   1.352       .  A
C474        H487   1.082       .  S
N475        C476   1.354       .  A
N475        C527   1.435       .  S
C476        H477   1.083       .  S
C478        N479   1.361       .  A
C478        H488   1.081       .  S
N479        C480   1.362       .  A
N479       C1506   1.448       .  S
C480        H486   1.081       .  S
C481        N482   1.353       .  A
C481        H483   1.082       .  S
N482        C484   1.353       .  A
N482        C671   1.434       .  S
C484        H485   1.082       .  S
O489        C505   1.277       .  A
O489      Zn2079   2.053       .  S
C490       O1298   1.272       .  A
C490        O503   1.270       .  A
C490        C513   1.444       .  S
O491      Cd1290   2.063       .  S
O492        C510   1.276       .  A
O492       Cd501   2.097       .  S
O493        C507   1.274       .  A
O493       Cd497   2.069       .  S
O494      Cd1289   2.080       .  S
Zn495      O2073   2.053   1_455  S
Zn495       O506   1.985       .  S
Zn495       O508   2.028       .  S
Zn495      O1292   1.936       .  S
O496       C1695   1.276       .  A
O496       Cd501   2.066   1_655  S
Cd497      O1286   2.080   1_545  S
Cd497       O499   2.027       .  S
Cd497      O1688   2.001       .  S
Cd498      O1283   2.063   1_545  S
Cd498       O502   2.012       .  S
Cd498       O511   2.063       .  S
O499       C2093   1.269       .  A
O500      Zn1287   1.936   1_545  S
O500      Cd1685   2.001   1_456  S
O500       Cd501   1.993       .  S
Cd501       O503   2.026       .  S
O502        C509   1.269       .  A
C504        N544   1.432       .  S
C504        O508   1.276       .  A
O506       C1282   1.272       .  A
C507       O1684   1.276       .  A
C509       O2083   1.269   1_455  A
C509        C532   1.436       .  S
C510        N597   1.436       .  S
O512        C528   1.275       .  A
O512       Zn518   2.021       .  S
C513       O1321   1.271       .  A
C513        O526   1.272       .  A
O514        C527   1.273       .  A
O514      Cd1313   2.075       .  S
O515       C2117   1.277       .  A
O515       Cd524   2.075   1_655  S
O516        C530   1.272       .  A
O516       Cd520   2.064       .  S
O517        C528   1.271       .  A
O517      Cd1312   2.058       .  S
Zn518       O529   1.975       .  S
Zn518      O2115   2.041   1_455  S
Zn518      O1315   1.935       .  S
O519        C530   1.277       .  A
O519       Cd524   2.108       .  S
Cd520      O1309   2.058   1_545  S
Cd520       O522   2.010       .  S
Cd520       O523   1.987       .  S
Cd521      O1306   2.075   1_545  S
Cd521       O525   2.026       .  S
Cd521       O534   2.067       .  S
Cd521      O2107   2.002       .  S
O522        C532   1.269       .  A
O523      Zn1310   1.935   1_545  S
O523      Cd2105   2.002   1_455  S
O523       Cd524   1.992       .  S
Cd524       O526   2.032       .  S
O525       C2116   1.270       .  A
C527        O531   1.276       .  A
C528        N567   1.429       .  S
O529       C1305   1.271       .  A
C530        N620   1.439       .  S
O531      Zn2102   2.041       .  S
C532       O2109   1.270   1_455  A
C533       O2099   1.277       .  A
C533        O534   1.273       .  A
C535        C537   1.550       .  S
C535        C539   1.550       .  S
C535        C538   1.524       .  S
C535        C694   1.546       .  S
C536        C540   1.548       .  S
C536        C542   1.549       .  S
C536        C541   1.528       .  S
C536        C704   1.544       .  S
C537        C545   1.380       .  A
C538        C549   1.368       .  A
C539        C553   1.383       .  A
C540        C543   1.381       .  A
C541        C547   1.373       .  A
C542        C550   1.383       .  A
C543        H556   1.080       .  S
N544        C545   1.354       .  A
C545        H546   1.080       .  S
C547        H557   1.082       .  S
N548        C549   1.357   1_554  A
N548        C767   1.431       .  S
C549        H555   1.083       .  S
C550        H552   1.080       .  S
N551        C553   1.353       .  A
N551        C642   1.432       .  S
C553        H554   1.080       .  S
C558        C560   1.548       .  S
C558        C562   1.547       .  S
C558        C561   1.526       .  S
C558        C707   1.546       .  S
C559        C563   1.547       .  S
C559        C565   1.551       .  S
C559        C564   1.524       .  S
C559        C697   1.545       .  S
C560        C568   1.381       .  A
C560        C563   1.405       .  A
C561        C572   1.370       .  A
C561        C564   1.389       .  A
C562        C576   1.380       .  A
C562        C565   1.405       .  A
C563        C566   1.380       .  A
C564        C570   1.369       .  A
C565        C573   1.384       .  A
C566        N567   1.353       .  A
C566        H579   1.080       .  S
N567        C568   1.353       .  A
C568        H569   1.079       .  S
C570        N571   1.356       .  A
C570        H580   1.082       .  S
N571        C572   1.357       .  A
N571        C757   1.430       .  S
C572        H578   1.082       .  S
C573        N574   1.355       .  A
C573        H575   1.081       .  S
N574        C576   1.353       .  A
N574        C651   1.431       .  S
C576        H577   1.080       .  S
C581        C583   1.550       .  S
C581        C585   1.549       .  S
C581        C584   1.529       .  S
C581        C684   1.546       .  S
C582        C586   1.550       .  S
C582        C588   1.552       .  S
C582        C587   1.538       .  S
C582        C674   1.544       .  S
C583        C591   1.380       .  A
C584        C595   1.376       .  A
C585        C599   1.382       .  A
C586        C589   1.387       .  A
C587        C593   1.381       .  A
C588        C596   1.385       .  A
C589        N590   1.357       .  A
C589        H602   1.081       .  S
N590        C628   1.436       .  S
C591        H592   1.081       .  S
C593        N594   1.363       .  A
C593        H603   1.081       .  S
N594        C727   1.445       .  S
C595        H601   1.083       .  S
C596        N597   1.356       .  A
C596        H598   1.081       .  S
C599        H600   1.081       .  S
C604        C606   1.548       .  S
C604        C608   1.553       .  S
C604        C607   1.534       .  S
C604        C677   1.545       .  S
C605        C609   1.556       .  S
C605        C611   1.552       .  S
C605        C610   1.535       .  S
C605        C687   1.545       .  S
C606        C614   1.380       .  A
C606        C609   1.402       .  A
C607        C618   1.379       .  A
C607        C610   1.388       .  A
C608        C622   1.388       .  A
C608        C611   1.401       .  A
C609        C612   1.391       .  A
C610        C616   1.378       .  A
C611        C619   1.384       .  A
C612        N613   1.358       .  A
C612        H625   1.081       .  S
N613        C614   1.357       .  A
N613        C666   1.438       .  S
C614        H615   1.081       .  S
C616        N617   1.363       .  A
C616        H626   1.082       .  S
N617        C618   1.363       .  A
N617        C717   1.449       .  S
C618        H624   1.081       .  S
C619        N620   1.357       .  A
C619        H621   1.081       .  S
N620        C622   1.356       .  A
C622        H623   1.081       .  S
O627        C643   1.270       .  A
O627       Zn633   1.982       .  S
C628        O644   1.277       .  A
O629       Cd636   2.074       .  S
O630        C648   1.268       .  A
O630       Cd639   2.022       .  S
O631       Cd635   2.071       .  S
O632        C643   1.267       .  A
O632       Cd635   2.015       .  S
Zn633       O644   2.059       .  S
Zn633       O646   2.032       .  S
Zn633       O638   1.951       .  S
O634        C645   1.273       .  A
O634       Cd639   2.073       .  S
Cd635       O637   2.083       .  S
Cd635       O638   1.989       .  S
Cd636       O640   2.096       .  S
Cd636       O649   2.043       .  S
Cd639       O641   2.054       .  S
O640        C647   1.277       .  A
C642        O646   1.277       .  A
C643        C668   1.427       .  S
C648        O649   1.271       .  A
C648        C665   1.431       .  S
O650        C666   1.279       .  A
O650       Zn656   2.076       .  S
C651        O667   1.278       .  A
C651        O664   1.273       .  A
O652        C665   1.267       .  A
O652       Cd659   2.017       .  S
O653        C671   1.274       .  A
O653       Cd662   2.084       .  S
O654        C668   1.268       .  A
O654       Cd658   2.021       .  S
O655        C666   1.272       .  A
O655       Cd658   2.051       .  S
Zn656       O667   2.038       .  S
Zn656       O669   1.994       .  S
Zn656       O661   1.948       .  S
O657        C668   1.269       .  A
O657       Cd662   2.031       .  S
Cd658       O660   2.070       .  S
Cd658       O661   1.991       .  S
Cd659       O663   2.063       .  S
Cd659       O672   2.075       .  S
Cd659       O661   1.984       .  S
O660        C670   1.272       .  A
O661       Cd662   2.001       .  S
Cd662       O664   2.067       .  S
O663        C670   1.274       .  A
C665        O669   1.271       .  A
C671        O672   1.274       .  A
C673        C674   1.409       .  A
C673        C678   1.405       .  A
C673        H680   1.080       .  S
C674        C675   1.413       .  A
C675        C676   1.404       .  A
C675        F682   1.355       .  S
C676        C677   1.409       .  A
C676        H681   1.079       .  S
C677        C678   1.413       .  A
C678        F679   1.356       .  S
C683        C684   1.409       .  A
C683        C688   1.405       .  A
C683        H690   1.080       .  S
C684        C685   1.413       .  A
C685        C686   1.405       .  A
C685        F692   1.356       .  S
C686        C687   1.408       .  A
C686        H691   1.080       .  S
C687        C688   1.412       .  A
C688        F689   1.356       .  S
C693        C694   1.409       .  A
C693        C698   1.403       .  A
C693        H700   1.078       .  S
C694        C695   1.412       .  A
C695        C696   1.405       .  A
C695        F702   1.356       .  S
C696        C697   1.410       .  A
C696        H701   1.078       .  S
C697        C698   1.411       .  A
C698        F699   1.355       .  S
C703        C704   1.409       .  A
C703        C708   1.403       .  A
C703        H710   1.079       .  S
C704        C705   1.413       .  A
C705        C706   1.405       .  A
C705        F712   1.356       .  S
C706        C707   1.410       .  A
C706        H711   1.079       .  S
C707        C708   1.411       .  A
C708        F709   1.355       .  S
C713       C1506   1.406       .  A
C713       C1510   1.401       .  A
C713        H720   1.082       .  S
C714       C1505   1.406       .  A
C714        C715   1.409   1_565  A
C714       N1271   1.448       .  S
C715        C716   1.400       .  A
C715        F722   1.356       .  S
C716        C717   1.407       .  A
C716        H721   1.082       .  S
C717        C718   1.412       .  A
C718       C1505   1.401   1_545  A
C718        F719   1.356       .  S
C723        C724   1.407   1_545  A
C723        C728   1.401       .  A
C723        H730   1.082       .  S
C724       C1121   1.410   1_556  A
C724       N1248   1.447       .  S
C725       C1120   1.410       .  A
C725       C1518   1.400       .  A
C725        F732   1.357       .  S
C726       C1517   1.400   1_545  A
C726        H731   1.083       .  S
C727        C728   1.408       .  A
C728        F729   1.356       .  S
C733        C734   1.408       .  A
C733        C738   1.402       .  A
C733        H740   1.081       .  S
C734        C735   1.413       .  A
C735        C736   1.405       .  A
C735        F742   1.356       .  S
C736        C737   1.409       .  A
C736        H741   1.082       .  S
C737        C738   1.414       .  A
C738        F739   1.356       .  S
C743        C744   1.409       .  A
C743        C748   1.402       .  A
C743        H750   1.082       .  S
C744        C745   1.412       .  A
C745        C746   1.406       .  A
C745        F752   1.356       .  S
C746        C747   1.410       .  A
C746        H751   1.082       .  S
C747        C748   1.414       .  A
C748        F749   1.356       .  S
C753        C754   1.403       .  A
C753       C2342   1.393       .  A
C753        H760   1.083       .  S
C754       C2339   1.405       .  A
C755       C2338   1.405   1_455  A
C755        C756   1.390       .  A
C755        F762   1.357       .  S
C756        C757   1.402       .  A
C756        H761   1.083       .  S
C757        C758   1.405       .  A
C758       C2337   1.393   1_455  A
C758        F759   1.357       .  S
C763       C1952   1.403       .  A
C763       C2352   1.396       .  A
C763        H770   1.083       .  S
C764       C1951   1.403       .  A
C764        C765   1.404   1_654  A
C764       N1994   1.430       .  S
C765        C766   1.389       .  A
C765        F772   1.357       .  S
C766        C767   1.402   1_556  A
C766        H771   1.083       .  S
C768       C2347   1.396   1_455  A
C768        F769   1.357       .  S
C773        C774   1.409       .  A
C773        C778   1.403       .  A
C773        H780   1.079       .  S
C774        C775   1.411       .  A
C775        C776   1.405       .  A
C775        F782   1.356       .  S
C776        C777   1.409       .  A
C776        H781   1.080       .  S
C777        C778   1.412       .  A
C778        F779   1.356       .  S
C783        C784   1.408       .  A
C783        C788   1.404       .  A
C783        H790   1.079       .  S
C784        C785   1.414       .  A
C785        C786   1.405       .  A
C785        F792   1.356       .  S
C786        C787   1.409       .  A
C786        H791   1.079       .  S
C787        C788   1.414       .  A
C788        F789   1.355       .  S
C793        C795   1.547       .  S
C793        C797   1.549       .  S
C793        C796   1.522       .  S
C793       C1170   1.546       .  S
C794        C798   1.547       .  S
C794        C800   1.549       .  S
C794        C799   1.529       .  S
C794       C1183   1.545       .  S
C795        C803   1.380       .  A
C795       C1194   1.403       .  A
C796        C807   1.367       .  A
C796       C1195   1.390       .  A
C797        C811   1.379       .  A
C797       C1196   1.406       .  A
C798       C1191   1.403   1_554  A
C798        C801   1.381       .  A
C799       C1192   1.390   1_554  A
C799        C805   1.373       .  A
C800       C1193   1.406   1_554  A
C800        C808   1.382       .  A
C801        N802   1.353   1_554  A
C801        H814   1.081       .  S
N802       C1199   1.352       .  A
N802        C903   1.428       .  S
C803       N1198   1.352       .  A
C803        H804   1.080       .  S
C805       N1202   1.357       .  A
C805        H815   1.082       .  S
N806       C1201   1.357       .  A
N806        C807   1.356       .  A
N806       C2744   1.430       .  S
C807        H813   1.082       .  S
C808        N809   1.355   1_554  A
C808        H810   1.080       .  S
N809       C1207   1.354       .  A
N809       C1041   1.432       .  S
C811       N1205   1.354       .  A
C811        H812   1.080       .  S
C816        C818   1.549       .  S
C816        C820   1.544       .  S
C816        C819   1.526       .  S
C816       C1180   1.546       .  S
C817        C821   1.547       .  S
C817        C823   1.549       .  S
C817        C822   1.524       .  S
C817       C1173   1.544       .  S
C818        C826   1.382       .  A
C818        C821   1.405       .  A
C819        C830   1.369       .  A
C819        C822   1.389       .  A
C820        C834   1.376       .  A
C820        C823   1.405       .  A
C821        C824   1.379       .  A
C822        C828   1.370       .  A
C823        C831   1.383       .  A
C824        N825   1.353       .  A
C824        H837   1.081       .  S
N825        C826   1.354       .  A
N825        C929   1.429       .  S
C826        H827   1.080       .  S
C828        N829   1.357       .  A
C828        H838   1.083       .  S
N829        C830   1.357       .  A
N829       C1150   1.430       .  S
C830        H836   1.082       .  S
C831        N832   1.355       .  A
C831        H833   1.081       .  S
N832        C834   1.353       .  A
N832       C1066   1.429       .  S
C834        H835   1.080       .  S
C839        C841   1.549       .  S
C839        C843   1.541       .  S
C839        C842   1.549       .  S
C839       C1130   1.544       .  S
C840        C844   1.543       .  S
C840        C846   1.546       .  S
C840        C845   1.541       .  S
C840       C1140   1.544       .  S
C841        C849   1.389       .  A
C841       C1240   1.407       .  A
C842        C853   1.382       .  A
C842       C1241   1.396       .  A
C843        C857   1.385       .  A
C843       C1242   1.400       .  A
C844       C1237   1.407   1_554  A
C844        C847   1.387       .  A
C845       C1238   1.396   1_554  A
C845        C851   1.379       .  A
C846       C1239   1.400   1_554  A
C846        C854   1.388       .  A
C847       N1244   1.355   1_554  A
C847        H860   1.082       .  S
N848       C1243   1.355       .  A
N848        C849   1.353       .  A
N848        C901   1.439       .  S
C849        H850   1.082       .  S
C851       N1248   1.360   1_554  A
C851        H861   1.081       .  S
N852       C1247   1.360       .  A
N852        C853   1.361       .  A
C853        H859   1.081       .  S
C854       N1251   1.355   1_554  A
C854        H856   1.082       .  S
N855       C1250   1.355       .  A
N855        C857   1.356       .  A
N855       C1439   1.439       .  S
C857        H858   1.082       .  S
C862        C864   1.538       .  S
C862        C866   1.547       .  S
C862        C865   1.545       .  S
C862       C1143   1.545       .  S
C863        C867   1.546       .  S
C863        C869   1.538       .  S
C863        C868   1.545       .  S
C863       C1133   1.544       .  S
C864        C872   1.385       .  A
C864        C867   1.405       .  A
C865        C876   1.379       .  A
C865        C868   1.396       .  A
C866        C880   1.385       .  A
C866        C869   1.405       .  A
C867        C870   1.386       .  A
C868        C874   1.380       .  A
C869        C877   1.385       .  A
C870        N871   1.352       .  A
C870        H883   1.082       .  S
N871        C872   1.354       .  A
N871        C923   1.435       .  S
C872        H873   1.083       .  S
C874        N875   1.361       .  A
C874        H884   1.081       .  S
N875        C876   1.362       .  A
C876        H882   1.081       .  S
C877        N878   1.353       .  A
C877        H879   1.082       .  S
N878        C880   1.353       .  A
N878       C1067   1.434       .  S
C880        H881   1.082       .  S
O885        C901   1.277       .  A
O885      Zn2475   2.053       .  S
C886        O899   1.270       .  A
C886        C909   1.444       .  S
O887       C1296   1.272   1_554  A
O888        C906   1.276       .  A
O888       Cd897   2.097       .  S
O889        C903   1.274   1_554  A
O889       Cd893   2.069       .  S
O890       C1297   1.274   1_554  A
Zn891      O2469   2.053   1_455  S
Zn891       O902   1.985   1_565  S
Zn891       O904   2.028       .  S
O892       C2883   1.276       .  A
O892       Cd897   2.066   1_655  S
Cd893       O895   2.027       .  S
Cd893      O2876   2.001   1_554  S
Cd894       O898   2.012       .  S
Cd894       O907   2.063       .  S
Cd894      O1292   1.988   1_554  S
O895       C2489   1.269       .  A
O896      Cd2873   2.001   1_455  S
O896      Cd1290   1.988       .  S
O896       Cd897   1.993       .  S
Cd897       O899   2.026       .  S
O898        C905   1.269       .  A
C900        N940   1.432       .  S
C900       O1283   1.272       .  A
C900        O904   1.276       .  A
C901       O1286   1.274       .  A
C903       O2872   1.276       .  A
C905       O2479   1.269   1_455  A
C905        C928   1.436       .  S
C906        N993   1.436       .  S
C906       O1303   1.272       .  A
O907       C1302   1.272   1_554  A
O908        C924   1.275       .  A
O908       Zn914   2.021       .  S
C909        O922   1.272       .  A
O910        C923   1.273       .  A
O911       C2513   1.277       .  A
O911       Cd920   2.075   1_655  S
O912        C926   1.272       .  A
O912       Cd916   2.064       .  S
O913        C924   1.271       .  A
Zn914       O925   1.975   1_565  S
Zn914      O2511   2.041   1_455  S
O915        C926   1.277       .  A
O915       Cd920   2.108       .  S
Cd916       O918   2.010       .  S
Cd916       O919   1.987       .  S
Cd917       O921   2.026       .  S
Cd917       O930   2.067       .  S
Cd917      O2503   2.002       .  S
O918        C928   1.269       .  A
O919      Cd2501   2.002   1_455  S
O919       Cd920   1.992       .  S
Cd920       O922   2.032       .  S
O921       C2512   1.270       .  A
C923        O927   1.276       .  A
C924        N963   1.429       .  S
C926       N1016   1.439       .  S
O927      Zn2498   2.041       .  S
C928       O2505   1.270   1_455  A
C929       O2495   1.277       .  A
C929        O930   1.273       .  A
C931        C933   1.550       .  S
C931        C935   1.550       .  S
C931        C934   1.524       .  S
C931       C1090   1.546       .  S
C932        C936   1.548       .  S
C932        C938   1.549       .  S
C932        C937   1.528       .  S
C932       C1100   1.544       .  S
C933        C941   1.380       .  A
C933       C1332   1.406       .  A
C934        C945   1.368       .  A
C934       C1333   1.389       .  A
C935        C949   1.383       .  A
C935       C1334   1.403       .  A
C936       C1329   1.406   1_554  A
C936        C939   1.381       .  A
C937       C1330   1.389   1_554  A
C937        C943   1.373       .  A
C938       C1331   1.403   1_554  A
C938        C946   1.383       .  A
C939       N1336   1.355   1_554  A
C939        H952   1.080       .  S
N940       C1335   1.355       .  A
N940        C941   1.354       .  A
C941        H942   1.080       .  S
C943       N1340   1.357       .  A
C943        H953   1.082       .  S
N944       C1339   1.357       .  A
N944        C945   1.357       .  A
N944       C1163   1.431       .  S
C945        H951   1.083       .  S
C946       N1343   1.354   1_554  A
C946        H948   1.080       .  S
N947       C1342   1.354       .  A
N947        C949   1.353       .  A
N947       C1038   1.432       .  S
C949        H950   1.080       .  S
C954        C956   1.548       .  S
C954        C958   1.547       .  S
C954        C957   1.526       .  S
C954       C1103   1.546       .  S
C955        C959   1.547       .  S
C955        C961   1.551       .  S
C955        C960   1.524       .  S
C955       C1093   1.545       .  S
C956        C964   1.381       .  A
C956        C959   1.405       .  A
C957        C968   1.370       .  A
C957        C960   1.389       .  A
C958        C972   1.380       .  A
C958        C961   1.405       .  A
C959        C962   1.380       .  A
C960        C966   1.369       .  A
C961        C969   1.384       .  A
C962        N963   1.353       .  A
C962        H975   1.080       .  S
N963        C964   1.353       .  A
C964        H965   1.079       .  S
C966        N967   1.356       .  A
C966        H976   1.082       .  S
N967        C968   1.357       .  A
N967       C1153   1.430       .  S
C968        H974   1.082       .  S
C969        N970   1.355       .  A
C969        H971   1.081       .  S
N970        C972   1.353       .  A
N970       C1047   1.431       .  S
C972        H973   1.080       .  S
C977        C979   1.550       .  S
C977        C981   1.549       .  S
C977        C980   1.529       .  S
C977       C1080   1.546       .  S
C978        C982   1.550       .  S
C978        C984   1.552       .  S
C978        C983   1.538       .  S
C978       C1070   1.544       .  S
C979        C987   1.380       .  A
C979       C1378   1.402   1_554  A
C980        C991   1.376       .  A
C980       C1379   1.389   1_554  A
C981        C995   1.382       .  A
C981       C1380   1.402   1_554  A
C982       C1375   1.402       .  A
C982        C985   1.387       .  A
C983       C1376   1.389       .  A
C983        C989   1.381       .  A
C984       C1377   1.402       .  A
C984        C992   1.385       .  A
C985        N986   1.357       .  A
C985        H998   1.081       .  S
N986       C1383   1.356       .  A
N986       C1024   1.436       .  S
C987       N1382   1.356   1_554  A
C987        H988   1.081       .  S
C989        N990   1.363       .  A
C989        H999   1.081       .  S
N990       C1387   1.360       .  A
N990       C1123   1.445       .  S
C991       N1386   1.360   1_554  A
C991        H997   1.083       .  S
C992        N993   1.356       .  A
C992        H994   1.081       .  S
N993       C1391   1.357       .  A
C995       N1389   1.357   1_554  A
C995        H996   1.081       .  S
C1000      C1002   1.548       .  S
C1000      C1004   1.553       .  S
C1000      C1003   1.534       .  S
C1000      C1073   1.545       .  S
C1001      C1005   1.556       .  S
C1001      C1007   1.552       .  S
C1001      C1006   1.535       .  S
C1001      C1083   1.545       .  S
C1002      C1010   1.380       .  A
C1002      C1005   1.402       .  A
C1003      C1014   1.379       .  A
C1003      C1006   1.388       .  A
C1004      C1018   1.388       .  A
C1004      C1007   1.401       .  A
C1005      C1008   1.391       .  A
C1006      C1012   1.378       .  A
C1007      C1015   1.384       .  A
C1008      N1009   1.358       .  A
C1008      H1021   1.081       .  S
N1009      C1010   1.357       .  A
N1009      C1062   1.438       .  S
C1010      H1011   1.081       .  S
C1012      N1013   1.363       .  A
C1012      H1022   1.082       .  S
N1013      C1014   1.363       .  A
N1013      C1113   1.450       .  S
C1014      H1020   1.081       .  S
C1015      N1016   1.357       .  A
C1015      H1017   1.081       .  S
N1016      C1018   1.356       .  A
C1018      H1019   1.081       .  S
O1023      C1039   1.270       .  A
O1023     Zn1029   1.982       .  S
C1024      O1040   1.277       .  A
C1024      O1433   1.272       .  A
O1025      C1434   1.274   1_554  A
O1025     Cd1032   2.074       .  S
O1026      C1044   1.268       .  A
O1026     Cd1035   2.022       .  S
O1027      C1437   1.275       .  A
O1027     Cd1031   2.071       .  S
O1028      C1039   1.267       .  A
O1028     Cd1031   2.015       .  S
Zn1029     O1040   2.059       .  S
Zn1029     O1042   2.032       .  S
Zn1029     O1034   1.951       .  S
O1030      C1041   1.273   1_554  A
O1030     Cd1035   2.073       .  S
Cd1031     O1033   2.083       .  S
Cd1031     O1034   1.989       .  S
Cd1032     O1036   2.096       .  S
Cd1032     O1045   2.043       .  S
Cd1032     O1430   2.002   1_554  S
O1033      C1439   1.275       .  A
O1034     Cd1428   2.002       .  S
O1034     Cd1431   1.990       .  S
Cd1035     O1037   2.054       .  S
Cd1035     O1430   1.990   1_554  S
O1036      C1043   1.277   1_554  A
O1037      C1420   1.272   1_554  A
C1038      O1421   1.274       .  A
C1038      O1042   1.277       .  A
C1039      C1064   1.427       .  S
C1041      O1423   1.275       .  A
C1043      N1251   1.439       .  S
C1043      O1429   1.275       .  A
C1044      O1045   1.271       .  A
C1044      C1061   1.431       .  S
O1046      C1062   1.279       .  A
O1046     Zn1052   2.076       .  S
C1047      O1063   1.278       .  A
C1047      O1060   1.273       .  A
O1048      C1061   1.267       .  A
O1048     Cd1055   2.017       .  S
O1049      C1067   1.274       .  A
O1049     Cd1058   2.084       .  S
O1050      C1064   1.268       .  A
O1050     Cd1054   2.021       .  S
O1051      C1062   1.272       .  A
O1051     Cd1054   2.051       .  S
Zn1052     O1063   2.038       .  S
Zn1052     O1065   1.994       .  S
Zn1052     O1057   1.948       .  S
O1053      C1064   1.269       .  A
O1053     Cd1058   2.031       .  S
Cd1054     O1056   2.070       .  S
Cd1054     O1057   1.991       .  S
Cd1055     O1059   2.063       .  S
Cd1055     O1068   2.075       .  S
Cd1055     O1057   1.984       .  S
O1056      C1066   1.272       .  A
O1057     Cd1058   2.001       .  S
Cd1058     O1060   2.067       .  S
O1059      C1066   1.274       .  A
C1061      O1065   1.271       .  A
C1067      O1068   1.274       .  A
C1069      C1070   1.409       .  A
C1069      C1074   1.405       .  A
C1069      H1076   1.080       .  S
C1070      C1071   1.413       .  A
C1071      C1072   1.404       .  A
C1071      F1078   1.355       .  S
C1072      C1073   1.409       .  A
C1072      H1077   1.079       .  S
C1073      C1074   1.413       .  A
C1074      F1075   1.356       .  S
C1079      C1080   1.409       .  A
C1079      C1084   1.405       .  A
C1079      H1086   1.080       .  S
C1080      C1081   1.413       .  A
C1081      C1082   1.405       .  A
C1081      F1088   1.356       .  S
C1082      C1083   1.408       .  A
C1082      H1087   1.080       .  S
C1083      C1084   1.412       .  A
C1084      F1085   1.356       .  S
C1089      C1090   1.409       .  A
C1089      C1094   1.403       .  A
C1089      H1096   1.078       .  S
C1090      C1091   1.412       .  A
C1091      C1092   1.405       .  A
C1091      F1098   1.356       .  S
C1092      C1093   1.410       .  A
C1092      H1097   1.078       .  S
C1093      C1094   1.411       .  A
C1094      F1095   1.355       .  S
C1099      C1100   1.409       .  A
C1099      C1104   1.403       .  A
C1099      H1106   1.079       .  S
C1100      C1101   1.413       .  A
C1101      C1102   1.405       .  A
C1101      F1108   1.356       .  S
C1102      C1103   1.410       .  A
C1102      H1107   1.079       .  S
C1103      C1104   1.411       .  A
C1104      F1105   1.355       .  S
C1109      H1116   1.082       .  S
C1110      C1111   1.409       .  A
C1111      C1112   1.400       .  A
C1111      F1118   1.356       .  S
C1112      C1113   1.407       .  A
C1112      H1117   1.082       .  S
C1113      C1114   1.412       .  A
C1114      F1115   1.356       .  S
C1119      C1120   1.407       .  A
C1119      C1124   1.401       .  A
C1119      H1126   1.082       .  S
C1121      F1128   1.357       .  S
C1122      C1519   1.406   1_554  A
C1122      H1127   1.083       .  S
C1123      C1518   1.406       .  A
C1123      C1124   1.408       .  A
C1124      F1125   1.356       .  S
C1129      C1130   1.408       .  A
C1129      C1134   1.402       .  A
C1129      H1136   1.081       .  S
C1130      C1131   1.413       .  A
C1131      C1132   1.405       .  A
C1131      F1138   1.356       .  S
C1132      C1133   1.409       .  A
C1132      H1137   1.082       .  S
C1133      C1134   1.414       .  A
C1134      F1135   1.356       .  S
C1139      C1140   1.409       .  A
C1139      C1144   1.402       .  A
C1139      H1146   1.082       .  S
C1140      C1141   1.412       .  A
C1141      C1142   1.406       .  A
C1141      F1148   1.356       .  S
C1142      C1143   1.410       .  A
C1142      H1147   1.082       .  S
C1143      C1144   1.414       .  A
C1144      F1145   1.356       .  S
C1149      C1150   1.403       .  A
C1149      C2738   1.393       .  A
C1149      H1156   1.083       .  S
C1150      C2735   1.405       .  A
C1151      C2734   1.405   1_455  A
C1151      C1152   1.390       .  A
C1151      F1158   1.357       .  S
C1152      C1153   1.402       .  A
C1152      H1157   1.083       .  S
C1153      C1154   1.405       .  A
C1154      C2733   1.393   1_455  A
C1154      F1155   1.357       .  S
C1159      C3140   1.403       .  A
C1159      C2748   1.396       .  A
C1159      H1166   1.083       .  S
C1160      C3139   1.403       .  A
C1160      C1161   1.404   1_655  A
C1160      N2390   1.430       .  S
C1161      C1162   1.389       .  A
C1161      F1168   1.357       .  S
C1162      C1163   1.402       .  A
C1162      H1167   1.083       .  S
C1163      C1560   1.406       .  A
C1164      C2743   1.396   1_455  A
C1164      C1559   1.406       .  A
C1164      F1165   1.357       .  S
C1169      C1170   1.409       .  A
C1169      C1174   1.403       .  A
C1169      H1176   1.079       .  S
C1170      C1171   1.411       .  A
C1171      C1172   1.405       .  A
C1171      F1178   1.356       .  S
C1172      C1173   1.409       .  A
C1172      H1177   1.080       .  S
C1173      C1174   1.412       .  A
C1174      F1175   1.356       .  S
C1179      C1180   1.408       .  A
C1179      C1184   1.404       .  A
C1179      H1186   1.079       .  S
C1180      C1181   1.414       .  A
C1181      C1182   1.405       .  A
C1181      F1188   1.356       .  S
C1182      C1183   1.409       .  A
C1182      H1187   1.079       .  S
C1183      C1184   1.414       .  A
C1184      F1185   1.355       .  S
C1189      C1191   1.547       .  S
C1189      C1193   1.549       .  S
C1189      C1192   1.522       .  S
C1189      C1566   1.546       .  S
C1190      C1194   1.547       .  S
C1190      C1196   1.549       .  S
C1190      C1195   1.529       .  S
C1190      C1579   1.545       .  S
C1191      C1199   1.380       .  A
C1192      C1203   1.367       .  A
C1193      C1207   1.379       .  A
C1194      C1197   1.381       .  A
C1195      C1201   1.373       .  A
C1196      C1204   1.382       .  A
C1197      N1198   1.353       .  A
C1197      H1210   1.081       .  S
N1198      C1299   1.428       .  S
C1199      H1200   1.080       .  S
C1201      H1211   1.082       .  S
N1202      C1203   1.356   1_554  A
N1202      C3140   1.430       .  S
C1203      H1209   1.082       .  S
C1204      N1205   1.355       .  A
C1204      H1206   1.080       .  S
N1205      C1437   1.432       .  S
C1207      H1208   1.080       .  S
C1212      C1214   1.549       .  S
C1212      C1216   1.544       .  S
C1212      C1215   1.526       .  S
C1212      C1576   1.546       .  S
C1213      C1217   1.547       .  S
C1213      C1219   1.549       .  S
C1213      C1218   1.524       .  S
C1213      C1569   1.544       .  S
C1214      C1222   1.382       .  A
C1214      C1217   1.405       .  A
C1215      C1226   1.369       .  A
C1215      C1218   1.389       .  A
C1216      C1230   1.376       .  A
C1216      C1219   1.405       .  A
C1217      C1220   1.379       .  A
C1218      C1224   1.370       .  A
C1219      C1227   1.383       .  A
C1220      N1221   1.353       .  A
C1220      H1233   1.081       .  S
N1221      C1222   1.354       .  A
N1221      C1325   1.429       .  S
C1222      H1223   1.080       .  S
C1224      N1225   1.357       .  A
C1224      H1234   1.083       .  S
N1225      C1226   1.357       .  A
N1225      C1546   1.430       .  S
C1226      H1232   1.082       .  S
C1227      N1228   1.355       .  A
C1227      H1229   1.081       .  S
N1228      C1230   1.353       .  A
N1228      C1462   1.429       .  S
C1230      H1231   1.080       .  S
C1235      C1237   1.549       .  S
C1235      C1239   1.541       .  S
C1235      C1238   1.549       .  S
C1235      C1526   1.544       .  S
C1236      C1240   1.543       .  S
C1236      C1242   1.546       .  S
C1236      C1241   1.541       .  S
C1236      C1536   1.544       .  S
C1237      C1245   1.389       .  A
C1238      C1249   1.382       .  A
C1239      C1253   1.385       .  A
C1240      C1243   1.387       .  A
C1241      C1247   1.379       .  A
C1242      C1250   1.388       .  A
C1243      H1256   1.082       .  S
N1244      C1245   1.353       .  A
N1244      C1297   1.439       .  S
C1245      H1246   1.082       .  S
C1247      H1257   1.081       .  S
N1248      C1249   1.361       .  A
C1249      H1255   1.081       .  S
C1250      H1252   1.082       .  S
N1251      C1253   1.356       .  A
C1253      H1254   1.082       .  S
C1258      C1260   1.538       .  S
C1258      C1262   1.547       .  S
C1258      C1261   1.545       .  S
C1258      C1539   1.545       .  S
C1259      C1263   1.546       .  S
C1259      C1265   1.538       .  S
C1259      C1264   1.545       .  S
C1259      C1529   1.544       .  S
C1260      C1268   1.385       .  A
C1260      C1263   1.405       .  A
C1261      C1272   1.379       .  A
C1261      C1264   1.396       .  A
C1262      C1276   1.385       .  A
C1262      C1265   1.405       .  A
C1263      C1266   1.386       .  A
C1264      C1270   1.380       .  A
C1265      C1273   1.385       .  A
C1266      N1267   1.352       .  A
C1266      H1279   1.082       .  S
N1267      C1268   1.354       .  A
N1267      C1319   1.435       .  S
C1268      H1269   1.083       .  S
C1270      N1271   1.361       .  A
C1270      H1280   1.081       .  S
N1271      C1272   1.362       .  A
C1272      H1278   1.081       .  S
C1273      N1274   1.353       .  A
C1273      H1275   1.082       .  S
N1274      C1276   1.353       .  A
N1274      C1463   1.434       .  S
C1276      H1277   1.082       .  S
O1281      C1297   1.277       .  A
O1281     Zn2871   2.053       .  S
C1282      O1295   1.270       .  A
C1282      C1305   1.444       .  S
O1284      C1302   1.276       .  A
O1284     Cd1293   2.097       .  S
O1285      C1299   1.274       .  A
O1285     Cd1289   2.069       .  S
Zn1287     O2865   2.053   1_455  S
Zn1287     O1298   1.985   1_565  S
Zn1287     O1300   2.028       .  S
O1288      C2487   1.276       .  A
O1288     Cd1293   2.066   1_655  S
Cd1289     O1291   2.027       .  S
Cd1289     O2480   2.001       .  S
Cd1290     O1294   2.012       .  S
Cd1290     O1303   2.063       .  S
O1291      C2885   1.269       .  A
O1292     Cd2477   2.001   1_456  S
O1292     Cd1293   1.993       .  S
Cd1293     O1295   2.026       .  S
O1294      C1301   1.269       .  A
C1296      N1336   1.432       .  S
C1296      O1300   1.276       .  A
C1299      O2476   1.276       .  A
C1301      O2875   1.269   1_455  A
C1301      C1324   1.436       .  S
C1302      N1389   1.436       .  S
O1304      C1320   1.275       .  A
O1304     Zn1310   2.021       .  S
C1305      O1318   1.272       .  A
O1306      C1319   1.273       .  A
O1307      C2909   1.277       .  A
O1307     Cd1316   2.075   1_655  S
O1308      C1322   1.272       .  A
O1308     Cd1312   2.064       .  S
O1309      C1320   1.271       .  A
Zn1310     O1321   1.975   1_565  S
Zn1310     O2907   2.041   1_455  S
O1311      C1322   1.277       .  A
O1311     Cd1316   2.108       .  S
Cd1312     O1314   2.010       .  S
Cd1312     O1315   1.987       .  S
Cd1313     O1317   2.026       .  S
Cd1313     O1326   2.067       .  S
Cd1313     O2899   2.002       .  S
O1314      C1324   1.269       .  A
O1315     Cd2897   2.002   1_455  S
O1315     Cd1316   1.992       .  S
Cd1316     O1318   2.032       .  S
O1317      C2908   1.270       .  A
C1319      O1323   1.276       .  A
C1320      N1359   1.429       .  S
C1322      N1412   1.439       .  S
O1323     Zn2894   2.041       .  S
C1324      O2901   1.270   1_455  A
C1325      O2891   1.277       .  A
C1325      O1326   1.273       .  A
C1327      C1329   1.550       .  S
C1327      C1331   1.550       .  S
C1327      C1330   1.524       .  S
C1327      C1486   1.546       .  S
C1328      C1332   1.548       .  S
C1328      C1334   1.549       .  S
C1328      C1333   1.528       .  S
C1328      C1496   1.544       .  S
C1329      C1337   1.380       .  A
C1330      C1341   1.368       .  A
C1331      C1345   1.383       .  A
C1332      C1335   1.381       .  A
C1333      C1339   1.373       .  A
C1334      C1342   1.383       .  A
C1335      H1348   1.080       .  S
N1336      C1337   1.354       .  A
C1337      H1338   1.080       .  S
C1339      H1349   1.082       .  S
N1340      C1341   1.357   1_554  A
N1340      C1559   1.431       .  S
C1341      H1347   1.083       .  S
C1342      H1344   1.080       .  S
N1343      C1345   1.353       .  A
N1343      C1434   1.432       .  S
C1345      H1346   1.080       .  S
C1350      C1352   1.548       .  S
C1350      C1354   1.547       .  S
C1350      C1353   1.526       .  S
C1350      C1499   1.546       .  S
C1351      C1355   1.547       .  S
C1351      C1357   1.551       .  S
C1351      C1356   1.524       .  S
C1351      C1489   1.545       .  S
C1352      C1360   1.381       .  A
C1352      C1355   1.405       .  A
C1353      C1364   1.370       .  A
C1353      C1356   1.389       .  A
C1354      C1368   1.380       .  A
C1354      C1357   1.405       .  A
C1355      C1358   1.380       .  A
C1356      C1362   1.369       .  A
C1357      C1365   1.384       .  A
C1358      N1359   1.353       .  A
C1358      H1371   1.080       .  S
N1359      C1360   1.353       .  A
C1360      H1361   1.079       .  S
C1362      N1363   1.356       .  A
C1362      H1372   1.082       .  S
N1363      C1364   1.357       .  A
N1363      C1549   1.430       .  S
C1364      H1370   1.082       .  S
C1365      N1366   1.355       .  A
C1365      H1367   1.081       .  S
N1366      C1368   1.353       .  A
N1366      C1443   1.431       .  S
C1368      H1369   1.080       .  S
C1373      C1375   1.550       .  S
C1373      C1377   1.549       .  S
C1373      C1376   1.529       .  S
C1373      C1476   1.546       .  S
C1374      C1378   1.550       .  S
C1374      C1380   1.552       .  S
C1374      C1379   1.538       .  S
C1374      C1466   1.544       .  S
C1375      C1383   1.380       .  A
C1376      C1387   1.376       .  A
C1377      C1391   1.382       .  A
C1378      C1381   1.387       .  A
C1379      C1385   1.381       .  A
C1380      C1388   1.385       .  A
C1381      N1382   1.357       .  A
C1381      H1394   1.081       .  S
N1382      C1420   1.436       .  S
C1383      H1384   1.081       .  S
C1385      N1386   1.363       .  A
C1385      H1395   1.081       .  S
N1386      C1519   1.445       .  S
C1387      H1393   1.083       .  S
C1388      N1389   1.356       .  A
C1388      H1390   1.081       .  S
C1391      H1392   1.081       .  S
C1396      C1398   1.548       .  S
C1396      C1400   1.553       .  S
C1396      C1399   1.534       .  S
C1396      C1469   1.545       .  S
C1397      C1401   1.556       .  S
C1397      C1403   1.552       .  S
C1397      C1402   1.535       .  S
C1397      C1479   1.545       .  S
C1398      C1406   1.380       .  A
C1398      C1401   1.402       .  A
C1399      C1410   1.379       .  A
C1399      C1402   1.388       .  A
C1400      C1414   1.388       .  A
C1400      C1403   1.401       .  A
C1401      C1404   1.391       .  A
C1402      C1408   1.378       .  A
C1403      C1411   1.384       .  A
C1404      N1405   1.358       .  A
C1404      H1417   1.081       .  S
N1405      C1406   1.357       .  A
N1405      C1458   1.438       .  S
C1406      H1407   1.081       .  S
C1408      N1409   1.363       .  A
C1408      H1418   1.082       .  S
N1409      C1410   1.363       .  A
N1409      C1509   1.450       .  S
C1410      H1416   1.081       .  S
C1411      N1412   1.357       .  A
C1411      H1413   1.081       .  S
N1412      C1414   1.356       .  A
C1414      H1415   1.081       .  S
O1419      C1435   1.270       .  A
O1419     Zn1425   1.982       .  S
C1420      O1436   1.277       .  A
O1421     Cd1428   2.074       .  S
O1422      C1440   1.268       .  A
O1422     Cd1431   2.022       .  S
O1423     Cd1427   2.071       .  S
O1424      C1435   1.267       .  A
O1424     Cd1427   2.015       .  S
Zn1425     O1436   2.059       .  S
Zn1425     O1438   2.032       .  S
Zn1425     O1430   1.951       .  S
O1426      C1437   1.273       .  A
O1426     Cd1431   2.073       .  S
Cd1427     O1429   2.083       .  S
Cd1427     O1430   1.989       .  S
Cd1428     O1432   2.096       .  S
Cd1428     O1441   2.043       .  S
Cd1431     O1433   2.054       .  S
O1432      C1439   1.277       .  A
C1434      O1438   1.277       .  A
C1435      C1460   1.427       .  S
C1440      O1441   1.271       .  A
C1440      C1457   1.431       .  S
O1442      C1458   1.279       .  A
O1442     Zn1448   2.076       .  S
C1443      O1459   1.278       .  A
C1443      O1456   1.273       .  A
O1444      C1457   1.267       .  A
O1444     Cd1451   2.017       .  S
O1445      C1463   1.274       .  A
O1445     Cd1454   2.084       .  S
O1446      C1460   1.268       .  A
O1446     Cd1450   2.021       .  S
O1447      C1458   1.272       .  A
O1447     Cd1450   2.051       .  S
Zn1448     O1459   2.038       .  S
Zn1448     O1461   1.994       .  S
Zn1448     O1453   1.948       .  S
O1449      C1460   1.269       .  A
O1449     Cd1454   2.031       .  S
Cd1450     O1452   2.070       .  S
Cd1450     O1453   1.991       .  S
Cd1451     O1455   2.063       .  S
Cd1451     O1464   2.075       .  S
Cd1451     O1453   1.984       .  S
O1452      C1462   1.272       .  A
O1453     Cd1454   2.001       .  S
Cd1454     O1456   2.067       .  S
O1455      C1462   1.274       .  A
C1457      O1461   1.271       .  A
C1463      O1464   1.274       .  A
C1465      C1466   1.409       .  A
C1465      C1470   1.405       .  A
C1465      H1472   1.080       .  S
C1466      C1467   1.413       .  A
C1467      C1468   1.404       .  A
C1467      F1474   1.355       .  S
C1468      C1469   1.409       .  A
C1468      H1473   1.079       .  S
C1469      C1470   1.413       .  A
C1470      F1471   1.356       .  S
C1475      C1476   1.409       .  A
C1475      C1480   1.405       .  A
C1475      H1482   1.080       .  S
C1476      C1477   1.413       .  A
C1477      C1478   1.405       .  A
C1477      F1484   1.356       .  S
C1478      C1479   1.408       .  A
C1478      H1483   1.080       .  S
C1479      C1480   1.412       .  A
C1480      F1481   1.356       .  S
C1485      C1486   1.409       .  A
C1485      C1490   1.403       .  A
C1485      H1492   1.078       .  S
C1486      C1487   1.412       .  A
C1487      C1488   1.405       .  A
C1487      F1494   1.356       .  S
C1488      C1489   1.410       .  A
C1488      H1493   1.078       .  S
C1489      C1490   1.411       .  A
C1490      F1491   1.355       .  S
C1495      C1496   1.409       .  A
C1495      C1500   1.403       .  A
C1495      H1502   1.079       .  S
C1496      C1497   1.413       .  A
C1497      C1498   1.405       .  A
C1497      F1504   1.356       .  S
C1498      C1499   1.410       .  A
C1498      H1503   1.079       .  S
C1499      C1500   1.411       .  A
C1500      F1501   1.355       .  S
C1505      H1512   1.082       .  S
C1506      C1507   1.409       .  A
C1507      C1508   1.400       .  A
C1507      F1514   1.356       .  S
C1508      C1509   1.407       .  A
C1508      H1513   1.082       .  S
C1509      C1510   1.412       .  A
C1510      F1511   1.356       .  S
C1515      C1516   1.407       .  A
C1515      C1520   1.401       .  A
C1515      H1522   1.082       .  S
C1517      F1524   1.357       .  S
C1518      H1523   1.083       .  S
C1519      C1520   1.408       .  A
C1520      F1521   1.356       .  S
C1525      C1526   1.408       .  A
C1525      C1530   1.402       .  A
C1525      H1532   1.081       .  S
C1526      C1527   1.413       .  A
C1527      C1528   1.405       .  A
C1527      F1534   1.356       .  S
C1528      C1529   1.409       .  A
C1528      H1533   1.082       .  S
C1529      C1530   1.414       .  A
C1530      F1531   1.356       .  S
C1535      C1536   1.409       .  A
C1535      C1540   1.402       .  A
C1535      H1542   1.082       .  S
C1536      C1537   1.412       .  A
C1537      C1538   1.406       .  A
C1537      F1544   1.356       .  S
C1538      C1539   1.410       .  A
C1538      H1543   1.082       .  S
C1539      C1540   1.414       .  A
C1540      F1541   1.356       .  S
C1545      C1546   1.403       .  A
C1545      C3134   1.393       .  A
C1545      H1552   1.083       .  S
C1546      C3131   1.405       .  A
C1547      C3130   1.405   1_455  A
C1547      C1548   1.390       .  A
C1547      F1554   1.357       .  S
C1548      C1549   1.402       .  A
C1548      H1553   1.083       .  S
C1549      C1550   1.405       .  A
C1550      C3129   1.393   1_455  A
C1550      F1551   1.357       .  S
C1555      C2744   1.403       .  A
C1555      C3144   1.396       .  A
C1555      H1562   1.083       .  S
C1556      C2743   1.403       .  A
C1556      C1557   1.404   1_654  A
C1556      N2786   1.430       .  S
C1557      C1558   1.389       .  A
C1557      F1564   1.357       .  S
C1558      C1559   1.402   1_556  A
C1558      H1563   1.083       .  S
C1560      C3139   1.396   1_455  A
C1560      F1561   1.357       .  S
C1565      C1566   1.409       .  A
C1565      C1570   1.403       .  A
C1565      H1572   1.079       .  S
C1566      C1567   1.411       .  A
C1567      C1568   1.405       .  A
C1567      F1574   1.356       .  S
C1568      C1569   1.409       .  A
C1568      H1573   1.080       .  S
C1569      C1570   1.412       .  A
C1570      F1571   1.356       .  S
C1575      C1576   1.408       .  A
C1575      C1580   1.404       .  A
C1575      H1582   1.079       .  S
C1576      C1577   1.414       .  A
C1577      C1578   1.405       .  A
C1577      F1584   1.356       .  S
C1578      C1579   1.409       .  A
C1578      H1583   1.079       .  S
C1579      C1580   1.414       .  A
C1580      F1581   1.355       .  S
C1585      C1587   1.547       .  S
C1585      C1589   1.549       .  S
C1585      C1588   1.522       .  S
C1585      C1962   1.546       .  S
C1586      C1590   1.547       .  S
C1586      C1592   1.549       .  S
C1586      C1591   1.529       .  S
C1586      C1975   1.545       .  S
C1587      C1595   1.380       .  A
C1587      C1986   1.403       .  A
C1588      C1599   1.367       .  A
C1588      C1987   1.390       .  A
C1589      C1603   1.379       .  A
C1589      C1988   1.406       .  A
C1590      C1983   1.403   1_554  A
C1590      C1593   1.381       .  A
C1591      C1984   1.390   1_554  A
C1591      C1597   1.373       .  A
C1592      C1985   1.406   1_554  A
C1592      C1600   1.382       .  A
C1593      N1594   1.353   1_554  A
C1593      H1606   1.081       .  S
N1594      C1991   1.352       .  A
N1594      C1695   1.428       .  S
C1595      N1990   1.352       .  A
C1595      H1596   1.080       .  S
C1597      N1994   1.357       .  A
C1597      H1607   1.082       .  S
N1598      C1993   1.357       .  A
N1598      C1599   1.356       .  A
C1599      H1605   1.082       .  S
C1600      N1601   1.355   1_554  A
C1600      H1602   1.080       .  S
N1601      C1999   1.354       .  A
N1601      C1833   1.432       .  S
C1603      N1997   1.354       .  A
C1603      H1604   1.080       .  S
C1608      C1610   1.549       .  S
C1608      C1612   1.544       .  S
C1608      C1611   1.526       .  S
C1608      C1972   1.546       .  S
C1609      C1613   1.547       .  S
C1609      C1615   1.549       .  S
C1609      C1614   1.524       .  S
C1609      C1965   1.544       .  S
C1610      C1618   1.382       .  A
C1610      C1613   1.405       .  A
C1611      C1622   1.369       .  A
C1611      C1614   1.389       .  A
C1612      C1626   1.376       .  A
C1612      C1615   1.405       .  A
C1613      C1616   1.379       .  A
C1614      C1620   1.370       .  A
C1615      C1623   1.383       .  A
C1616      N1617   1.353       .  A
C1616      H1629   1.081       .  S
N1617      C1618   1.354       .  A
N1617      C1721   1.429       .  S
C1618      H1619   1.080       .  S
C1620      N1621   1.357       .  A
C1620      H1630   1.083       .  S
N1621      C1622   1.357       .  A
N1621      C1942   1.430       .  S
C1622      H1628   1.082       .  S
C1623      N1624   1.355       .  A
C1623      H1625   1.081       .  S
N1624      C1626   1.353       .  A
N1624      C1858   1.429       .  S
C1626      H1627   1.080       .  S
C1631      C1633   1.549       .  S
C1631      C1635   1.541       .  S
C1631      C1634   1.549       .  S
C1631      C1922   1.544       .  S
C1632      C1636   1.543       .  S
C1632      C1638   1.546       .  S
C1632      C1637   1.541       .  S
C1632      C1932   1.544       .  S
C1633      C1641   1.389       .  A
C1633      C2032   1.407       .  A
C1634      C1645   1.382       .  A
C1634      C2033   1.396       .  A
C1635      C1649   1.385       .  A
C1635      C2034   1.400       .  A
C1636      C2029   1.407   1_554  A
C1636      C1639   1.387       .  A
C1637      C2030   1.396   1_554  A
C1637      C1643   1.379       .  A
C1638      C2031   1.400   1_554  A
C1638      C1646   1.388       .  A
C1639      N2036   1.355   1_554  A
C1639      H1652   1.082       .  S
N1640      C2035   1.355       .  A
N1640      C1641   1.353       .  A
N1640      C1693   1.439       .  S
C1641      H1642   1.082       .  S
C1643      N2040   1.360   1_554  A
C1643      H1653   1.081       .  S
N1644      C2039   1.360       .  A
N1644      C1645   1.361       .  A
N1644      C2704   1.447       .  S
C1645      H1651   1.081       .  S
C1646      N2043   1.355   1_554  A
C1646      H1648   1.082       .  S
N1647      C2042   1.355       .  A
N1647      C1649   1.356       .  A
N1647      C2231   1.439       .  S
C1649      H1650   1.082       .  S
C1654      C1656   1.538       .  S
C1654      C1658   1.547       .  S
C1654      C1657   1.545       .  S
C1654      C1935   1.545       .  S
C1655      C1659   1.546       .  S
C1655      C1661   1.538       .  S
C1655      C1660   1.545       .  S
C1655      C1925   1.544       .  S
C1656      C1664   1.385       .  A
C1656      C1659   1.405       .  A
C1657      C1668   1.379       .  A
C1657      C1660   1.396       .  A
C1658      C1672   1.385       .  A
C1658      C1661   1.405       .  A
C1659      C1662   1.386       .  A
C1660      C1666   1.380       .  A
C1661      C1669   1.385       .  A
C1662      N1663   1.352       .  A
C1662      H1675   1.082       .  S
N1663      C1664   1.354       .  A
N1663      C1715   1.435       .  S
C1664      H1665   1.083       .  S
C1666      N1667   1.361       .  A
C1666      H1676   1.081       .  S
N1667      C1668   1.362       .  A
N1667      C2694   1.448       .  S
C1668      H1674   1.081       .  S
C1669      N1670   1.353       .  A
C1669      H1671   1.082       .  S
N1670      C1672   1.353       .  A
N1670      C1859   1.434       .  S
C1672      H1673   1.082       .  S
O1677      C1693   1.277       .  A
C1678      O2486   1.272       .  A
C1678      O1691   1.270       .  A
C1678      C1701   1.444       .  S
O1679      C2088   1.272   1_554  A
O1679     Cd2478   2.063       .  S
O1680      C1698   1.276       .  A
O1680     Cd1689   2.097       .  S
O1681      C1695   1.274   1_554  A
O1681     Cd1685   2.069       .  S
O1682      C2089   1.274   1_554  A
O1682     Cd2477   2.080       .  S
Zn1683     O1694   1.985       .  S
Zn1683     O1696   2.028       .  S
Zn1683     O2480   1.936       .  S
O1684     Cd1689   2.066       .  S
Cd1685     O2474   2.080   1_545  S
Cd1685     O1687   2.027       .  S
Cd1686     O2471   2.063   1_545  S
Cd1686     O1690   2.012       .  S
Cd1686     O1699   2.063       .  S
Cd1686     O2084   1.988   1_554  S
O1688     Zn2475   1.936   1_545  S
O1688     Cd2082   1.988       .  S
O1688     Cd1689   1.993       .  S
Cd1689     O1691   2.026       .  S
O1690      C1697   1.269       .  A
C1692      N1732   1.432       .  S
C1692      O2075   1.272       .  A
C1692      O1696   1.276       .  A
C1693      O2078   1.274       .  A
O1694      C2470   1.272       .  A
C1697      C1720   1.436       .  S
C1698      N1785   1.436       .  S
C1698      O2095   1.272       .  A
O1699      C2094   1.272   1_554  A
O1700      C1716   1.275       .  A
O1700     Zn1706   2.021       .  S
C1701      O2509   1.271       .  A
C1701      O1714   1.272       .  A
O1702      C1715   1.273       .  A
O1702     Cd2501   2.075       .  S
O1703     Cd1712   2.075       .  S
O1704      C1718   1.272       .  A
O1704     Cd1708   2.064       .  S
O1705      C1716   1.271       .  A
O1705     Cd2500   2.058       .  S
Zn1706     O1717   1.975       .  S
Zn1706     O2503   1.935       .  S
O1707      C1718   1.277       .  A
O1707     Cd1712   2.108       .  S
Cd1708     O2497   2.058   1_545  S
Cd1708     O1710   2.010       .  S
Cd1708     O1711   1.987       .  S
Cd1709     O2494   2.075   1_545  S
Cd1709     O1713   2.026       .  S
Cd1709     O1722   2.067       .  S
O1710      C1720   1.269       .  A
O1711     Zn2498   1.935   1_545  S
O1711     Cd1712   1.992       .  S
Cd1712     O1714   2.032       .  S
C1715      O1719   1.276       .  A
C1716      N1755   1.429       .  S
O1717      C2493   1.271       .  A
C1718      N1808   1.439       .  S
C1721      O1722   1.273       .  A
C1723      C1725   1.550       .  S
C1723      C1727   1.550       .  S
C1723      C1726   1.524       .  S
C1723      C1882   1.546       .  S
C1724      C1728   1.548       .  S
C1724      C1730   1.549       .  S
C1724      C1729   1.528       .  S
C1724      C1892   1.544       .  S
C1725      C1733   1.380       .  A
C1725      C2124   1.406       .  A
C1726      C1737   1.368       .  A
C1726      C2125   1.389       .  A
C1727      C1741   1.383       .  A
C1727      C2126   1.403       .  A
C1728      C2121   1.406   1_554  A
C1728      C1731   1.381       .  A
C1729      C2122   1.389   1_554  A
C1729      C1735   1.373       .  A
C1730      C2123   1.403   1_554  A
C1730      C1738   1.383       .  A
C1731      N2128   1.355   1_554  A
C1731      H1744   1.080       .  S
N1732      C2127   1.355       .  A
N1732      C1733   1.354       .  A
C1733      H1734   1.080       .  S
C1735      N2132   1.357       .  A
C1735      H1745   1.082       .  S
N1736      C2131   1.357       .  A
N1736      C1737   1.357       .  A
N1736      C1955   1.431       .  S
C1737      H1743   1.083       .  S
C1738      N2135   1.354   1_554  A
C1738      H1740   1.080       .  S
N1739      C2134   1.354       .  A
N1739      C1741   1.353       .  A
N1739      C1830   1.432       .  S
C1741      H1742   1.080       .  S
C1746      C1748   1.548       .  S
C1746      C1750   1.547       .  S
C1746      C1749   1.526       .  S
C1746      C1895   1.546       .  S
C1747      C1751   1.547       .  S
C1747      C1753   1.551       .  S
C1747      C1752   1.524       .  S
C1747      C1885   1.545       .  S
C1748      C1756   1.381       .  A
C1748      C1751   1.405       .  A
C1749      C1760   1.370       .  A
C1749      C1752   1.389       .  A
C1750      C1764   1.380       .  A
C1750      C1753   1.405       .  A
C1751      C1754   1.380       .  A
C1752      C1758   1.369       .  A
C1753      C1761   1.384       .  A
C1754      N1755   1.353       .  A
C1754      H1767   1.080       .  S
N1755      C1756   1.353       .  A
C1756      H1757   1.079       .  S
C1758      N1759   1.356       .  A
C1758      H1768   1.082       .  S
N1759      C1760   1.357       .  A
N1759      C1945   1.430       .  S
C1760      H1766   1.082       .  S
C1761      N1762   1.355       .  A
C1761      H1763   1.081       .  S
N1762      C1764   1.353       .  A
N1762      C1839   1.431       .  S
C1764      H1765   1.080       .  S
C1769      C1771   1.550       .  S
C1769      C1773   1.549       .  S
C1769      C1772   1.529       .  S
C1769      C1872   1.546       .  S
C1770      C1774   1.550       .  S
C1770      C1776   1.552       .  S
C1770      C1775   1.538       .  S
C1770      C1862   1.544       .  S
C1771      C1779   1.380       .  A
C1771      C2170   1.402   1_554  A
C1772      C1783   1.376       .  A
C1772      C2171   1.389   1_554  A
C1773      C1787   1.382       .  A
C1773      C2172   1.402   1_554  A
C1774      C2167   1.402       .  A
C1774      C1777   1.387       .  A
C1775      C2168   1.389       .  A
C1775      C1781   1.381       .  A
C1776      C2169   1.402       .  A
C1776      C1784   1.385       .  A
C1777      N1778   1.357       .  A
C1777      H1790   1.081       .  S
N1778      C2175   1.356       .  A
N1778      C1816   1.436       .  S
C1779      N2174   1.356   1_554  A
C1779      H1780   1.081       .  S
C1781      N1782   1.363       .  A
C1781      H1791   1.081       .  S
N1782      C2179   1.360       .  A
N1782      C1915   1.445       .  S
C1783      N2178   1.360   1_554  A
C1783      H1789   1.083       .  S
C1784      N1785   1.356       .  A
C1784      H1786   1.081       .  S
N1785      C2183   1.357       .  A
C1787      N2181   1.357   1_554  A
C1787      H1788   1.081       .  S
C1792      C1794   1.548       .  S
C1792      C1796   1.553       .  S
C1792      C1795   1.534       .  S
C1792      C1865   1.545       .  S
C1793      C1797   1.556       .  S
C1793      C1799   1.552       .  S
C1793      C1798   1.535       .  S
C1793      C1875   1.545       .  S
C1794      C1802   1.380       .  A
C1794      C1797   1.402       .  A
C1795      C1806   1.379       .  A
C1795      C1798   1.388       .  A
C1796      C1810   1.388       .  A
C1796      C1799   1.401       .  A
C1797      C1800   1.391       .  A
C1798      C1804   1.378       .  A
C1799      C1807   1.384       .  A
C1800      N1801   1.358       .  A
C1800      H1813   1.081       .  S
N1801      C1802   1.357       .  A
N1801      C1854   1.438       .  S
C1802      H1803   1.081       .  S
C1804      N1805   1.363       .  A
C1804      H1814   1.082       .  S
N1805      C1806   1.363       .  A
N1805      C1905   1.449       .  S
C1806      H1812   1.081       .  S
C1807      N1808   1.357       .  A
C1807      H1809   1.081       .  S
N1808      C1810   1.356       .  A
C1810      H1811   1.081       .  S
O1815      C1831   1.270       .  A
O1815     Zn1821   1.982       .  S
C1816      O1832   1.277       .  A
C1816      O2225   1.272       .  A
O1817      C2226   1.274   1_554  A
O1817     Cd1824   2.074       .  S
O1818      C1836   1.268       .  A
O1818     Cd1827   2.022       .  S
O1819      C2229   1.275       .  A
O1819     Cd1823   2.071       .  S
O1820      C1831   1.267       .  A
O1820     Cd1823   2.015       .  S
Zn1821     O1832   2.059       .  S
Zn1821     O1834   2.032       .  S
Zn1821     O1826   1.951       .  S
O1822      C1833   1.273   1_554  A
O1822     Cd1827   2.073       .  S
Cd1823     O1825   2.083       .  S
Cd1823     O1826   1.989       .  S
Cd1824     O1828   2.096       .  S
Cd1824     O1837   2.043       .  S
Cd1824     O2222   2.002   1_554  S
O1825      C2231   1.275       .  A
O1826     Cd2220   2.002       .  S
O1826     Cd2223   1.990       .  S
Cd1827     O1829   2.054       .  S
Cd1827     O2222   1.990   1_554  S
O1828      C1835   1.277   1_554  A
O1829      C2212   1.272   1_554  A
C1830      O2213   1.274       .  A
C1830      O1834   1.277       .  A
C1831      C1856   1.427       .  S
C1833      O2215   1.275       .  A
C1835      N2043   1.439       .  S
C1835      O2221   1.275       .  A
C1836      O1837   1.271       .  A
C1836      C1853   1.431       .  S
O1838      C1854   1.279       .  A
O1838     Zn1844   2.076       .  S
C1839      O1855   1.278       .  A
C1839      O1852   1.273       .  A
O1840      C1853   1.267       .  A
O1840     Cd1847   2.017       .  S
O1841      C1859   1.274       .  A
O1841     Cd1850   2.084       .  S
O1842      C1856   1.268       .  A
O1842     Cd1846   2.021       .  S
O1843      C1854   1.272       .  A
O1843     Cd1846   2.051       .  S
Zn1844     O1855   2.038       .  S
Zn1844     O1857   1.994       .  S
Zn1844     O1849   1.948       .  S
O1845      C1856   1.269       .  A
O1845     Cd1850   2.031       .  S
Cd1846     O1848   2.070       .  S
Cd1846     O1849   1.991       .  S
Cd1847     O1851   2.063       .  S
Cd1847     O1860   2.075       .  S
Cd1847     O1849   1.984       .  S
O1848      C1858   1.272       .  A
O1849     Cd1850   2.001       .  S
Cd1850     O1852   2.067       .  S
O1851      C1858   1.274       .  A
C1853      O1857   1.271       .  A
C1859      O1860   1.274       .  A
C1861      C1862   1.409       .  A
C1861      C1866   1.405       .  A
C1861      H1868   1.080       .  S
C1862      C1863   1.413       .  A
C1863      C1864   1.404       .  A
C1863      F1870   1.355       .  S
C1864      C1865   1.409       .  A
C1864      H1869   1.079       .  S
C1865      C1866   1.413       .  A
C1866      F1867   1.356       .  S
C1871      C1872   1.409       .  A
C1871      C1876   1.405       .  A
C1871      H1878   1.080       .  S
C1872      C1873   1.413       .  A
C1873      C1874   1.405       .  A
C1873      F1880   1.356       .  S
C1874      C1875   1.408       .  A
C1874      H1879   1.080       .  S
C1875      C1876   1.412       .  A
C1876      F1877   1.356       .  S
C1881      C1882   1.409       .  A
C1881      C1886   1.403       .  A
C1881      H1888   1.078       .  S
C1882      C1883   1.412       .  A
C1883      C1884   1.405       .  A
C1883      F1890   1.356       .  S
C1884      C1885   1.410       .  A
C1884      H1889   1.078       .  S
C1885      C1886   1.411       .  A
C1886      F1887   1.355       .  S
C1891      C1892   1.409       .  A
C1891      C1896   1.403       .  A
C1891      H1898   1.079       .  S
C1892      C1893   1.413       .  A
C1893      C1894   1.405       .  A
C1893      F1900   1.356       .  S
C1894      C1895   1.410       .  A
C1894      H1899   1.079       .  S
C1895      C1896   1.411       .  A
C1896      F1897   1.355       .  S
C1901      C2694   1.406       .  A
C1901      C2698   1.401       .  A
C1901      H1908   1.082       .  S
C1902      C2693   1.406       .  A
C1902      C1903   1.409   1_565  A
C1902      N2459   1.448       .  S
C1903      C1904   1.400       .  A
C1903      F1910   1.356       .  S
C1904      C1905   1.407       .  A
C1904      H1909   1.082       .  S
C1905      C1906   1.412       .  A
C1906      C2693   1.401   1_545  A
C1906      F1907   1.356       .  S
C1911      C1912   1.407   1_545  A
C1911      C1916   1.401       .  A
C1911      H1918   1.082       .  S
C1912      C3101   1.410       .  A
C1912      N2436   1.447       .  S
C1913      C3100   1.410   1_554  A
C1913      C2706   1.400       .  A
C1913      F1920   1.357       .  S
C1914      C2705   1.400   1_545  A
C1914      C2311   1.406   1_554  A
C1914      H1919   1.083       .  S
C1915      C2310   1.406       .  A
C1915      C1916   1.408       .  A
C1916      F1917   1.356       .  S
C1921      C1922   1.408       .  A
C1921      C1926   1.402       .  A
C1921      H1928   1.081       .  S
C1922      C1923   1.413       .  A
C1923      C1924   1.405       .  A
C1923      F1930   1.356       .  S
C1924      C1925   1.409       .  A
C1924      H1929   1.082       .  S
C1925      C1926   1.414       .  A
C1926      F1927   1.356       .  S
C1931      C1932   1.409       .  A
C1931      C1936   1.402       .  A
C1931      H1938   1.082       .  S
C1932      C1933   1.412       .  A
C1933      C1934   1.406       .  A
C1933      F1940   1.356       .  S
C1934      C1935   1.410       .  A
C1934      H1939   1.082       .  S
C1935      C1936   1.414       .  A
C1936      F1937   1.356       .  S
C1941      C1942   1.403       .  A
C1941      H1948   1.083       .  S
C1943      C1944   1.390       .  A
C1943      F1950   1.357       .  S
C1944      C1945   1.402       .  A
C1944      H1949   1.083       .  S
C1945      C1946   1.405       .  A
C1946      F1947   1.357       .  S
C1951      H1958   1.083       .  S
C1952      C1953   1.404       .  A
C1953      C1954   1.389       .  A
C1953      F1960   1.357       .  S
C1954      C1955   1.402       .  A
C1954      H1959   1.083       .  S
C1955      C2352   1.406       .  A
C1956      C2351   1.406       .  A
C1956      F1957   1.357       .  S
C1961      C1962   1.409       .  A
C1961      C1966   1.403       .  A
C1961      H1968   1.079       .  S
C1962      C1963   1.411       .  A
C1963      C1964   1.405       .  A
C1963      F1970   1.356       .  S
C1964      C1965   1.409       .  A
C1964      H1969   1.080       .  S
C1965      C1966   1.412       .  A
C1966      F1967   1.356       .  S
C1971      C1972   1.408       .  A
C1971      C1976   1.404       .  A
C1971      H1978   1.079       .  S
C1972      C1973   1.414       .  A
C1973      C1974   1.405       .  A
C1973      F1980   1.356       .  S
C1974      C1975   1.409       .  A
C1974      H1979   1.079       .  S
C1975      C1976   1.414       .  A
C1976      F1977   1.355       .  S
C1981      C1983   1.547       .  S
C1981      C1985   1.549       .  S
C1981      C1984   1.522       .  S
C1981      C2358   1.546       .  S
C1982      C1986   1.547       .  S
C1982      C1988   1.549       .  S
C1982      C1987   1.529       .  S
C1982      C2371   1.545       .  S
C1983      C1991   1.380       .  A
C1984      C1995   1.367       .  A
C1985      C1999   1.379       .  A
C1986      C1989   1.381       .  A
C1987      C1993   1.373       .  A
C1988      C1996   1.382       .  A
C1989      N1990   1.353       .  A
C1989      H2002   1.081       .  S
N1990      C2091   1.428       .  S
C1991      H1992   1.080       .  S
C1993      H2003   1.082       .  S
N1994      C1995   1.356   1_554  A
C1995      H2001   1.082       .  S
C1996      N1997   1.355       .  A
C1996      H1998   1.080       .  S
N1997      C2229   1.432       .  S
C1999      H2000   1.080       .  S
C2004      C2006   1.549       .  S
C2004      C2008   1.544       .  S
C2004      C2007   1.526       .  S
C2004      C2368   1.546       .  S
C2005      C2009   1.547       .  S
C2005      C2011   1.549       .  S
C2005      C2010   1.524       .  S
C2005      C2361   1.544       .  S
C2006      C2014   1.382       .  A
C2006      C2009   1.405       .  A
C2007      C2018   1.369       .  A
C2007      C2010   1.389       .  A
C2008      C2022   1.376       .  A
C2008      C2011   1.405       .  A
C2009      C2012   1.379       .  A
C2010      C2016   1.370       .  A
C2011      C2019   1.383       .  A
C2012      N2013   1.353       .  A
C2012      H2025   1.081       .  S
N2013      C2014   1.354       .  A
N2013      C2117   1.429       .  S
C2014      H2015   1.080       .  S
C2016      N2017   1.357       .  A
C2016      H2026   1.083       .  S
N2017      C2018   1.357       .  A
N2017      C2338   1.430       .  S
C2018      H2024   1.082       .  S
C2019      N2020   1.355       .  A
C2019      H2021   1.081       .  S
N2020      C2022   1.353       .  A
N2020      C2254   1.429       .  S
C2022      H2023   1.080       .  S
C2027      C2029   1.549       .  S
C2027      C2031   1.541       .  S
C2027      C2030   1.549       .  S
C2027      C2318   1.544       .  S
C2028      C2032   1.543       .  S
C2028      C2034   1.546       .  S
C2028      C2033   1.541       .  S
C2028      C2328   1.544       .  S
C2029      C2037   1.389       .  A
C2030      C2041   1.382       .  A
C2031      C2045   1.385       .  A
C2032      C2035   1.387       .  A
C2033      C2039   1.379       .  A
C2034      C2042   1.388       .  A
C2035      H2048   1.082       .  S
N2036      C2037   1.353       .  A
N2036      C2089   1.439       .  S
C2037      H2038   1.082       .  S
C2039      H2049   1.081       .  S
N2040      C2041   1.361       .  A
N2040      C3100   1.447       .  S
C2041      H2047   1.081       .  S
C2042      H2044   1.082       .  S
N2043      C2045   1.356       .  A
C2045      H2046   1.082       .  S
C2050      C2052   1.538       .  S
C2050      C2054   1.547       .  S
C2050      C2053   1.545       .  S
C2050      C2331   1.545       .  S
C2051      C2055   1.546       .  S
C2051      C2057   1.538       .  S
C2051      C2056   1.545       .  S
C2051      C2321   1.544       .  S
C2052      C2060   1.385       .  A
C2052      C2055   1.405       .  A
C2053      C2064   1.379       .  A
C2053      C2056   1.396       .  A
C2054      C2068   1.385       .  A
C2054      C2057   1.405       .  A
C2055      C2058   1.386       .  A
C2056      C2062   1.380       .  A
C2057      C2065   1.385       .  A
C2058      N2059   1.352       .  A
C2058      H2071   1.082       .  S
N2059      C2060   1.354       .  A
N2059      C2111   1.435       .  S
C2060      H2061   1.083       .  S
C2062      N2063   1.361       .  A
C2062      H2072   1.081       .  S
N2063      C2064   1.362       .  A
N2063      C3090   1.448       .  S
C2064      H2070   1.081       .  S
C2065      N2066   1.353       .  A
C2065      H2067   1.082       .  S
N2066      C2068   1.353       .  A
N2066      C2255   1.434       .  S
C2068      H2069   1.082       .  S
O2073      C2089   1.277       .  A
C2074      O2882   1.272       .  A
C2074      O2087   1.270       .  A
C2074      C2097   1.444       .  S
O2075     Cd2874   2.063       .  S
O2076      C2094   1.276       .  A
O2076     Cd2085   2.097       .  S
O2077      C2091   1.274       .  A
O2077     Cd2081   2.069       .  S
O2078     Cd2873   2.080       .  S
Zn2079     O2090   1.985       .  S
Zn2079     O2092   2.028       .  S
Zn2079     O2876   1.936       .  S
O2080     Cd2085   2.066       .  S
Cd2081     O2870   2.080   1_545  S
Cd2081     O2083   2.027       .  S
Cd2082     O2867   2.063   1_545  S
Cd2082     O2086   2.012       .  S
Cd2082     O2095   2.063       .  S
O2084     Zn2871   1.936   1_545  S
O2084     Cd2085   1.993       .  S
Cd2085     O2087   2.026       .  S
O2086      C2093   1.269       .  A
C2088      N2128   1.432       .  S
C2088      O2092   1.276       .  A
O2090      C2866   1.272       .  A
C2093      C2116   1.436       .  S
C2094      N2181   1.436       .  S
O2096      C2112   1.275       .  A
O2096     Zn2102   2.021       .  S
C2097      O2905   1.271       .  A
C2097      O2110   1.272       .  A
O2098      C2111   1.273       .  A
O2098     Cd2897   2.075       .  S
O2099     Cd2108   2.075       .  S
O2100      C2114   1.272       .  A
O2100     Cd2104   2.064       .  S
O2101      C2112   1.271       .  A
O2101     Cd2896   2.058       .  S
Zn2102     O2113   1.975       .  S
Zn2102     O2899   1.935       .  S
O2103      C2114   1.277       .  A
O2103     Cd2108   2.108       .  S
Cd2104     O2893   2.058   1_545  S
Cd2104     O2106   2.010       .  S
Cd2104     O2107   1.987       .  S
Cd2105     O2890   2.075   1_545  S
Cd2105     O2109   2.026       .  S
Cd2105     O2118   2.067       .  S
O2106      C2116   1.269       .  A
O2107     Zn2894   1.935   1_545  S
O2107     Cd2108   1.992       .  S
Cd2108     O2110   2.032       .  S
C2111      O2115   1.276       .  A
C2112      N2151   1.429       .  S
O2113      C2889   1.271       .  A
C2114      N2204   1.439       .  S
C2117      O2118   1.273       .  A
C2119      C2121   1.550       .  S
C2119      C2123   1.550       .  S
C2119      C2122   1.524       .  S
C2119      C2278   1.546       .  S
C2120      C2124   1.548       .  S
C2120      C2126   1.549       .  S
C2120      C2125   1.528       .  S
C2120      C2288   1.544       .  S
C2121      C2129   1.380       .  A
C2122      C2133   1.368       .  A
C2123      C2137   1.383       .  A
C2124      C2127   1.381       .  A
C2125      C2131   1.373       .  A
C2126      C2134   1.383       .  A
C2127      H2140   1.080       .  S
N2128      C2129   1.354       .  A
C2129      H2130   1.080       .  S
C2131      H2141   1.082       .  S
N2132      C2133   1.357   1_554  A
N2132      C2351   1.431       .  S
C2133      H2139   1.083       .  S
C2134      H2136   1.080       .  S
N2135      C2137   1.353       .  A
N2135      C2226   1.432       .  S
C2137      H2138   1.080       .  S
C2142      C2144   1.548       .  S
C2142      C2146   1.547       .  S
C2142      C2145   1.526       .  S
C2142      C2291   1.546       .  S
C2143      C2147   1.547       .  S
C2143      C2149   1.551       .  S
C2143      C2148   1.524       .  S
C2143      C2281   1.545       .  S
C2144      C2152   1.381       .  A
C2144      C2147   1.405       .  A
C2145      C2156   1.370       .  A
C2145      C2148   1.389       .  A
C2146      C2160   1.380       .  A
C2146      C2149   1.405       .  A
C2147      C2150   1.380       .  A
C2148      C2154   1.369       .  A
C2149      C2157   1.384       .  A
C2150      N2151   1.353       .  A
C2150      H2163   1.080       .  S
N2151      C2152   1.353       .  A
C2152      H2153   1.079       .  S
C2154      N2155   1.356       .  A
C2154      H2164   1.082       .  S
N2155      C2156   1.357       .  A
N2155      C2341   1.430       .  S
C2156      H2162   1.082       .  S
C2157      N2158   1.355       .  A
C2157      H2159   1.081       .  S
N2158      C2160   1.353       .  A
N2158      C2235   1.431       .  S
C2160      H2161   1.080       .  S
C2165      C2167   1.550       .  S
C2165      C2169   1.549       .  S
C2165      C2168   1.529       .  S
C2165      C2268   1.546       .  S
C2166      C2170   1.550       .  S
C2166      C2172   1.552       .  S
C2166      C2171   1.538       .  S
C2166      C2258   1.544       .  S
C2167      C2175   1.380       .  A
C2168      C2179   1.376       .  A
C2169      C2183   1.382       .  A
C2170      C2173   1.387       .  A
C2171      C2177   1.381       .  A
C2172      C2180   1.385       .  A
C2173      N2174   1.357       .  A
C2173      H2186   1.081       .  S
N2174      C2212   1.436       .  S
C2175      H2176   1.081       .  S
C2177      N2178   1.363       .  A
C2177      H2187   1.081       .  S
N2178      C2311   1.445       .  S
C2179      H2185   1.083       .  S
C2180      N2181   1.356       .  A
C2180      H2182   1.081       .  S
C2183      H2184   1.081       .  S
C2188      C2190   1.548       .  S
C2188      C2192   1.553       .  S
C2188      C2191   1.534       .  S
C2188      C2261   1.545       .  S
C2189      C2193   1.556       .  S
C2189      C2195   1.552       .  S
C2189      C2194   1.535       .  S
C2189      C2271   1.545       .  S
C2190      C2198   1.380       .  A
C2190      C2193   1.402       .  A
C2191      C2202   1.379       .  A
C2191      C2194   1.388       .  A
C2192      C2206   1.388       .  A
C2192      C2195   1.401       .  A
C2193      C2196   1.391       .  A
C2194      C2200   1.378       .  A
C2195      C2203   1.384       .  A
C2196      N2197   1.358       .  A
C2196      H2209   1.081       .  S
N2197      C2198   1.357       .  A
N2197      C2250   1.438       .  S
C2198      H2199   1.081       .  S
C2200      N2201   1.363       .  A
C2200      H2210   1.082       .  S
N2201      C2202   1.363       .  A
N2201      C2301   1.450       .  S
C2202      H2208   1.081       .  S
C2203      N2204   1.357       .  A
C2203      H2205   1.081       .  S
N2204      C2206   1.356       .  A
C2206      H2207   1.081       .  S
O2211      C2227   1.270       .  A
O2211     Zn2217   1.982       .  S
C2212      O2228   1.277       .  A
O2213     Cd2220   2.074       .  S
O2214      C2232   1.268       .  A
O2214     Cd2223   2.022       .  S
O2215     Cd2219   2.071       .  S
O2216      C2227   1.267       .  A
O2216     Cd2219   2.015       .  S
Zn2217     O2228   2.059       .  S
Zn2217     O2230   2.032       .  S
Zn2217     O2222   1.951       .  S
O2218      C2229   1.273       .  A
O2218     Cd2223   2.073       .  S
Cd2219     O2221   2.083       .  S
Cd2219     O2222   1.989       .  S
Cd2220     O2224   2.096       .  S
Cd2220     O2233   2.043       .  S
Cd2223     O2225   2.054       .  S
O2224      C2231   1.277       .  A
C2226      O2230   1.277       .  A
C2227      C2252   1.427       .  S
C2232      O2233   1.271       .  A
C2232      C2249   1.431       .  S
O2234      C2250   1.279       .  A
O2234     Zn2240   2.076       .  S
C2235      O2251   1.278       .  A
C2235      O2248   1.273       .  A
O2236      C2249   1.267       .  A
O2236     Cd2243   2.017       .  S
O2237      C2255   1.274       .  A
O2237     Cd2246   2.084       .  S
O2238      C2252   1.268       .  A
O2238     Cd2242   2.021       .  S
O2239      C2250   1.272       .  A
O2239     Cd2242   2.051       .  S
Zn2240     O2251   2.038       .  S
Zn2240     O2253   1.994       .  S
Zn2240     O2245   1.948       .  S
O2241      C2252   1.269       .  A
O2241     Cd2246   2.031       .  S
Cd2242     O2244   2.070       .  S
Cd2242     O2245   1.991       .  S
Cd2243     O2247   2.063       .  S
Cd2243     O2256   2.075       .  S
Cd2243     O2245   1.984       .  S
O2244      C2254   1.272       .  A
O2245     Cd2246   2.001       .  S
Cd2246     O2248   2.067       .  S
O2247      C2254   1.274       .  A
C2249      O2253   1.271       .  A
C2255      O2256   1.274       .  A
C2257      C2258   1.409       .  A
C2257      C2262   1.405       .  A
C2257      H2264   1.080       .  S
C2258      C2259   1.413       .  A
C2259      C2260   1.404       .  A
C2259      F2266   1.355       .  S
C2260      C2261   1.409       .  A
C2260      H2265   1.079       .  S
C2261      C2262   1.413       .  A
C2262      F2263   1.356       .  S
C2267      C2268   1.409       .  A
C2267      C2272   1.405       .  A
C2267      H2274   1.080       .  S
C2268      C2269   1.413       .  A
C2269      C2270   1.405       .  A
C2269      F2276   1.356       .  S
C2270      C2271   1.408       .  A
C2270      H2275   1.080       .  S
C2271      C2272   1.412       .  A
C2272      F2273   1.356       .  S
C2277      C2278   1.409       .  A
C2277      C2282   1.403       .  A
C2277      H2284   1.078       .  S
C2278      C2279   1.412       .  A
C2279      C2280   1.405       .  A
C2279      F2286   1.356       .  S
C2280      C2281   1.410       .  A
C2280      H2285   1.078       .  S
C2281      C2282   1.411       .  A
C2282      F2283   1.355       .  S
C2287      C2288   1.409       .  A
C2287      C2292   1.403       .  A
C2287      H2294   1.079       .  S
C2288      C2289   1.413       .  A
C2289      C2290   1.405       .  A
C2289      F2296   1.356       .  S
C2290      C2291   1.410       .  A
C2290      H2295   1.079       .  S
C2291      C2292   1.411       .  A
C2292      F2293   1.355       .  S
C2297      C3090   1.406       .  A
C2297      C3094   1.401       .  A
C2297      H2304   1.082       .  S
C2298      C3089   1.406       .  A
C2298      C2299   1.409   1_565  A
C2298      N2855   1.448       .  S
C2299      C2300   1.400       .  A
C2299      F2306   1.356       .  S
C2300      C2301   1.407       .  A
C2300      H2305   1.082       .  S
C2301      C2302   1.412       .  A
C2302      C3089   1.401   1_545  A
C2302      F2303   1.356       .  S
C2307      C2308   1.407   1_545  A
C2307      C2312   1.401       .  A
C2307      H2314   1.082       .  S
C2308      C2705   1.410   1_556  A
C2308      N2832   1.447       .  S
C2309      C2704   1.410       .  A
C2309      C3102   1.400       .  A
C2309      F2316   1.357       .  S
C2310      C3101   1.400   1_545  A
C2310      H2315   1.083       .  S
C2311      C2312   1.408       .  A
C2312      F2313   1.356       .  S
C2317      C2318   1.408       .  A
C2317      C2322   1.402       .  A
C2317      H2324   1.081       .  S
C2318      C2319   1.413       .  A
C2319      C2320   1.405       .  A
C2319      F2326   1.356       .  S
C2320      C2321   1.409       .  A
C2320      H2325   1.082       .  S
C2321      C2322   1.414       .  A
C2322      F2323   1.356       .  S
C2327      C2328   1.409       .  A
C2327      C2332   1.402       .  A
C2327      H2334   1.082       .  S
C2328      C2329   1.412       .  A
C2329      C2330   1.406       .  A
C2329      F2336   1.356       .  S
C2330      C2331   1.410       .  A
C2330      H2335   1.082       .  S
C2331      C2332   1.414       .  A
C2332      F2333   1.356       .  S
C2337      C2338   1.403       .  A
C2337      H2344   1.083       .  S
C2339      C2340   1.390       .  A
C2339      F2346   1.357       .  S
C2340      C2341   1.402       .  A
C2340      H2345   1.083       .  S
C2341      C2342   1.405       .  A
C2342      F2343   1.357       .  S
C2347      H2354   1.083       .  S
C2348      C2349   1.404   1_554  A
C2349      C2350   1.389       .  A
C2349      F2356   1.357       .  S
C2350      C2351   1.402   1_556  A
C2350      H2355   1.083       .  S
C2352      F2353   1.357       .  S
C2357      C2358   1.409       .  A
C2357      C2362   1.403       .  A
C2357      H2364   1.079       .  S
C2358      C2359   1.411       .  A
C2359      C2360   1.405       .  A
C2359      F2366   1.356       .  S
C2360      C2361   1.409       .  A
C2360      H2365   1.080       .  S
C2361      C2362   1.412       .  A
C2362      F2363   1.356       .  S
C2367      C2368   1.408       .  A
C2367      C2372   1.404       .  A
C2367      H2374   1.079       .  S
C2368      C2369   1.414       .  A
C2369      C2370   1.405       .  A
C2369      F2376   1.356       .  S
C2370      C2371   1.409       .  A
C2370      H2375   1.079       .  S
C2371      C2372   1.414       .  A
C2372      F2373   1.355       .  S
C2377      C2379   1.547       .  S
C2377      C2381   1.549       .  S
C2377      C2380   1.522       .  S
C2377      C2754   1.546       .  S
C2378      C2382   1.547       .  S
C2378      C2384   1.549       .  S
C2378      C2383   1.529       .  S
C2378      C2767   1.545       .  S
C2379      C2387   1.380       .  A
C2379      C2778   1.403       .  A
C2380      C2391   1.367       .  A
C2380      C2779   1.390       .  A
C2381      C2395   1.379       .  A
C2381      C2780   1.406       .  A
C2382      C2775   1.403   1_554  A
C2382      C2385   1.381       .  A
C2383      C2776   1.390   1_554  A
C2383      C2389   1.373       .  A
C2384      C2777   1.406   1_554  A
C2384      C2392   1.382       .  A
C2385      N2386   1.353   1_554  A
C2385      H2398   1.081       .  S
N2386      C2783   1.352       .  A
N2386      C2487   1.428       .  S
C2387      N2782   1.352       .  A
C2387      H2388   1.080       .  S
C2389      N2786   1.357       .  A
C2389      H2399   1.082       .  S
N2390      C2785   1.357       .  A
N2390      C2391   1.356       .  A
C2391      H2397   1.082       .  S
C2392      N2393   1.355   1_554  A
C2392      H2394   1.080       .  S
N2393      C2791   1.354       .  A
N2393      C2625   1.432       .  S
C2395      N2789   1.354       .  A
C2395      H2396   1.080       .  S
C2400      C2402   1.549       .  S
C2400      C2404   1.544       .  S
C2400      C2403   1.526       .  S
C2400      C2764   1.546       .  S
C2401      C2405   1.547       .  S
C2401      C2407   1.549       .  S
C2401      C2406   1.524       .  S
C2401      C2757   1.544       .  S
C2402      C2410   1.382       .  A
C2402      C2405   1.405       .  A
C2403      C2414   1.369       .  A
C2403      C2406   1.389       .  A
C2404      C2418   1.376       .  A
C2404      C2407   1.405       .  A
C2405      C2408   1.379       .  A
C2406      C2412   1.370       .  A
C2407      C2415   1.383       .  A
C2408      N2409   1.353       .  A
C2408      H2421   1.081       .  S
N2409      C2410   1.354       .  A
N2409      C2513   1.429       .  S
C2410      H2411   1.080       .  S
C2412      N2413   1.357       .  A
C2412      H2422   1.083       .  S
N2413      C2414   1.357       .  A
N2413      C2734   1.430       .  S
C2414      H2420   1.082       .  S
C2415      N2416   1.355       .  A
C2415      H2417   1.081       .  S
N2416      C2418   1.353       .  A
N2416      C2650   1.429       .  S
C2418      H2419   1.080       .  S
C2423      C2425   1.549       .  S
C2423      C2427   1.541       .  S
C2423      C2426   1.549       .  S
C2423      C2714   1.544       .  S
C2424      C2428   1.543       .  S
C2424      C2430   1.546       .  S
C2424      C2429   1.541       .  S
C2424      C2724   1.544       .  S
C2425      C2433   1.389       .  A
C2425      C2824   1.407       .  A
C2426      C2437   1.382       .  A
C2426      C2825   1.396       .  A
C2427      C2441   1.385       .  A
C2427      C2826   1.400       .  A
C2428      C2821   1.407   1_554  A
C2428      C2431   1.387       .  A
C2429      C2822   1.396   1_554  A
C2429      C2435   1.379       .  A
C2430      C2823   1.400   1_554  A
C2430      C2438   1.388       .  A
C2431      N2828   1.355   1_554  A
C2431      H2444   1.082       .  S
N2432      C2827   1.355       .  A
N2432      C2433   1.353       .  A
N2432      C2485   1.439       .  S
C2433      H2434   1.082       .  S
C2435      N2832   1.360   1_554  A
C2435      H2445   1.081       .  S
N2436      C2831   1.360       .  A
N2436      C2437   1.361       .  A
C2437      H2443   1.081       .  S
C2438      N2835   1.355   1_554  A
C2438      H2440   1.082       .  S
N2439      C2834   1.355       .  A
N2439      C2441   1.356       .  A
N2439      C3023   1.439       .  S
C2441      H2442   1.082       .  S
C2446      C2448   1.538       .  S
C2446      C2450   1.547       .  S
C2446      C2449   1.545       .  S
C2446      C2727   1.545       .  S
C2447      C2451   1.546       .  S
C2447      C2453   1.538       .  S
C2447      C2452   1.545       .  S
C2447      C2717   1.544       .  S
C2448      C2456   1.385       .  A
C2448      C2451   1.405       .  A
C2449      C2460   1.379       .  A
C2449      C2452   1.396       .  A
C2450      C2464   1.385       .  A
C2450      C2453   1.405       .  A
C2451      C2454   1.386       .  A
C2452      C2458   1.380       .  A
C2453      C2461   1.385       .  A
C2454      N2455   1.352       .  A
C2454      H2467   1.082       .  S
N2455      C2456   1.354       .  A
N2455      C2507   1.435       .  S
C2456      H2457   1.083       .  S
C2458      N2459   1.361       .  A
C2458      H2468   1.081       .  S
N2459      C2460   1.362       .  A
C2460      H2466   1.081       .  S
C2461      N2462   1.353       .  A
C2461      H2463   1.082       .  S
N2462      C2464   1.353       .  A
N2462      C2651   1.434       .  S
C2464      H2465   1.082       .  S
O2469      C2485   1.277       .  A
C2470      O2483   1.270       .  A
C2470      C2493   1.444       .  S
O2471      C2880   1.272   1_554  A
O2472      C2490   1.276       .  A
O2472     Cd2481   2.097       .  S
O2473      C2487   1.274   1_554  A
O2473     Cd2477   2.069       .  S
O2474      C2881   1.274   1_554  A
Zn2475     O2486   1.985   1_565  S
Zn2475     O2488   2.028       .  S
O2476     Cd2481   2.066       .  S
Cd2477     O2479   2.027       .  S
Cd2478     O2482   2.012       .  S
Cd2478     O2491   2.063       .  S
Cd2478     O2876   1.988   1_554  S
O2480     Cd2874   1.988       .  S
O2480     Cd2481   1.993       .  S
Cd2481     O2483   2.026       .  S
O2482      C2489   1.269       .  A
C2484      N2524   1.432       .  S
C2484      O2867   1.272       .  A
C2484      O2488   1.276       .  A
C2485      O2870   1.274       .  A
C2489      C2512   1.436       .  S
C2490      N2577   1.436       .  S
C2490      O2887   1.272       .  A
O2491      C2886   1.272   1_554  A
O2492      C2508   1.275       .  A
O2492     Zn2498   2.021       .  S
C2493      O2506   1.272       .  A
O2494      C2507   1.273       .  A
O2495     Cd2504   2.075       .  S
O2496      C2510   1.272       .  A
O2496     Cd2500   2.064       .  S
O2497      C2508   1.271       .  A
Zn2498     O2509   1.975   1_565  S
O2499      C2510   1.277       .  A
O2499     Cd2504   2.108       .  S
Cd2500     O2502   2.010       .  S
Cd2500     O2503   1.987       .  S
Cd2501     O2505   2.026       .  S
Cd2501     O2514   2.067       .  S
O2502      C2512   1.269       .  A
O2503     Cd2504   1.992       .  S
Cd2504     O2506   2.032       .  S
C2507      O2511   1.276       .  A
C2508      N2547   1.429       .  S
C2510      N2600   1.439       .  S
C2513      O2514   1.273       .  A
C2515      C2517   1.550       .  S
C2515      C2519   1.550       .  S
C2515      C2518   1.524       .  S
C2515      C2674   1.546       .  S
C2516      C2520   1.548       .  S
C2516      C2522   1.549       .  S
C2516      C2521   1.528       .  S
C2516      C2684   1.544       .  S
C2517      C2525   1.380       .  A
C2517      C2916   1.406       .  A
C2518      C2529   1.368       .  A
C2518      C2917   1.389       .  A
C2519      C2533   1.383       .  A
C2519      C2918   1.403       .  A
C2520      C2913   1.406   1_554  A
C2520      C2523   1.381       .  A
C2521      C2914   1.389   1_554  A
C2521      C2527   1.373       .  A
C2522      C2915   1.403   1_554  A
C2522      C2530   1.383       .  A
C2523      N2920   1.355   1_554  A
C2523      H2536   1.080       .  S
N2524      C2919   1.355       .  A
N2524      C2525   1.354       .  A
C2525      H2526   1.080       .  S
C2527      N2924   1.357       .  A
C2527      H2537   1.082       .  S
N2528      C2923   1.357       .  A
N2528      C2529   1.357       .  A
N2528      C2747   1.431       .  S
C2529      H2535   1.083       .  S
C2530      N2927   1.354   1_554  A
C2530      H2532   1.080       .  S
N2531      C2926   1.354       .  A
N2531      C2533   1.353       .  A
N2531      C2622   1.432       .  S
C2533      H2534   1.080       .  S
C2538      C2540   1.548       .  S
C2538      C2542   1.547       .  S
C2538      C2541   1.526       .  S
C2538      C2687   1.546       .  S
C2539      C2543   1.547       .  S
C2539      C2545   1.551       .  S
C2539      C2544   1.524       .  S
C2539      C2677   1.545       .  S
C2540      C2548   1.381       .  A
C2540      C2543   1.405       .  A
C2541      C2552   1.370       .  A
C2541      C2544   1.389       .  A
C2542      C2556   1.380       .  A
C2542      C2545   1.405       .  A
C2543      C2546   1.380       .  A
C2544      C2550   1.369       .  A
C2545      C2553   1.384       .  A
C2546      N2547   1.353       .  A
C2546      H2559   1.080       .  S
N2547      C2548   1.353       .  A
C2548      H2549   1.079       .  S
C2550      N2551   1.356       .  A
C2550      H2560   1.082       .  S
N2551      C2552   1.357       .  A
N2551      C2737   1.430       .  S
C2552      H2558   1.082       .  S
C2553      N2554   1.355       .  A
C2553      H2555   1.081       .  S
N2554      C2556   1.353       .  A
N2554      C2631   1.431       .  S
C2556      H2557   1.080       .  S
C2561      C2563   1.550       .  S
C2561      C2565   1.549       .  S
C2561      C2564   1.529       .  S
C2561      C2664   1.546       .  S
C2562      C2566   1.550       .  S
C2562      C2568   1.552       .  S
C2562      C2567   1.538       .  S
C2562      C2654   1.544       .  S
C2563      C2571   1.380       .  A
C2563      C2962   1.402   1_554  A
C2564      C2575   1.376       .  A
C2564      C2963   1.389   1_554  A
C2565      C2579   1.382       .  A
C2565      C2964   1.402   1_554  A
C2566      C2959   1.402       .  A
C2566      C2569   1.387       .  A
C2567      C2960   1.389       .  A
C2567      C2573   1.381       .  A
C2568      C2961   1.402       .  A
C2568      C2576   1.385       .  A
C2569      N2570   1.357       .  A
C2569      H2582   1.081       .  S
N2570      C2967   1.356       .  A
N2570      C2608   1.436       .  S
C2571      N2966   1.356   1_554  A
C2571      H2572   1.081       .  S
C2573      N2574   1.363       .  A
C2573      H2583   1.081       .  S
N2574      C2971   1.360       .  A
N2574      C2707   1.445       .  S
C2575      N2970   1.360   1_554  A
C2575      H2581   1.083       .  S
C2576      N2577   1.356       .  A
C2576      H2578   1.081       .  S
N2577      C2975   1.357       .  A
C2579      N2973   1.357   1_554  A
C2579      H2580   1.081       .  S
C2584      C2586   1.548       .  S
C2584      C2588   1.553       .  S
C2584      C2587   1.534       .  S
C2584      C2657   1.545       .  S
C2585      C2589   1.556       .  S
C2585      C2591   1.552       .  S
C2585      C2590   1.535       .  S
C2585      C2667   1.545       .  S
C2586      C2594   1.380       .  A
C2586      C2589   1.402       .  A
C2587      C2598   1.379       .  A
C2587      C2590   1.388       .  A
C2588      C2602   1.388       .  A
C2588      C2591   1.401       .  A
C2589      C2592   1.391       .  A
C2590      C2596   1.378       .  A
C2591      C2599   1.384       .  A
C2592      N2593   1.358       .  A
C2592      H2605   1.081       .  S
N2593      C2594   1.357       .  A
N2593      C2646   1.438       .  S
C2594      H2595   1.081       .  S
C2596      N2597   1.363       .  A
C2596      H2606   1.082       .  S
N2597      C2598   1.363       .  A
N2597      C2697   1.450       .  S
C2598      H2604   1.081       .  S
C2599      N2600   1.357       .  A
C2599      H2601   1.081       .  S
N2600      C2602   1.356       .  A
C2602      H2603   1.081       .  S
O2607      C2623   1.270       .  A
O2607     Zn2613   1.982       .  S
C2608      O2624   1.277       .  A
C2608      O3017   1.272       .  A
O2609      C3018   1.274   1_554  A
O2609     Cd2616   2.074       .  S
O2610      C2628   1.268       .  A
O2610     Cd2619   2.022       .  S
O2611      C3021   1.275       .  A
O2611     Cd2615   2.071       .  S
O2612      C2623   1.267       .  A
O2612     Cd2615   2.015       .  S
Zn2613     O2624   2.059       .  S
Zn2613     O2626   2.032       .  S
Zn2613     O2618   1.951       .  S
O2614      C2625   1.273   1_554  A
O2614     Cd2619   2.073       .  S
Cd2615     O2617   2.083       .  S
Cd2615     O2618   1.989       .  S
Cd2616     O2620   2.096       .  S
Cd2616     O2629   2.043       .  S
Cd2616     O3014   2.002   1_554  S
O2617      C3023   1.275       .  A
O2618     Cd3012   2.002       .  S
O2618     Cd3015   1.990       .  S
Cd2619     O2621   2.054       .  S
Cd2619     O3014   1.990   1_554  S
O2620      C2627   1.277   1_554  A
O2621      C3004   1.272   1_554  A
C2622      O3005   1.274       .  A
C2622      O2626   1.277       .  A
C2623      C2648   1.427       .  S
C2625      O3007   1.275       .  A
C2627      N2835   1.439       .  S
C2627      O3013   1.275       .  A
C2628      O2629   1.271       .  A
C2628      C2645   1.431       .  S
O2630      C2646   1.279       .  A
O2630     Zn2636   2.076       .  S
C2631      O2647   1.278       .  A
C2631      O2644   1.273       .  A
O2632      C2645   1.267       .  A
O2632     Cd2639   2.017       .  S
O2633      C2651   1.274       .  A
O2633     Cd2642   2.084       .  S
O2634      C2648   1.268       .  A
O2634     Cd2638   2.021       .  S
O2635      C2646   1.272       .  A
O2635     Cd2638   2.051       .  S
Zn2636     O2647   2.038       .  S
Zn2636     O2649   1.994       .  S
Zn2636     O2641   1.948       .  S
O2637      C2648   1.269       .  A
O2637     Cd2642   2.031       .  S
Cd2638     O2640   2.070       .  S
Cd2638     O2641   1.991       .  S
Cd2639     O2643   2.063       .  S
Cd2639     O2652   2.075       .  S
Cd2639     O2641   1.984       .  S
O2640      C2650   1.272       .  A
O2641     Cd2642   2.001       .  S
Cd2642     O2644   2.067       .  S
O2643      C2650   1.274       .  A
C2645      O2649   1.271       .  A
C2651      O2652   1.274       .  A
C2653      C2654   1.409       .  A
C2653      C2658   1.405       .  A
C2653      H2660   1.080       .  S
C2654      C2655   1.413       .  A
C2655      C2656   1.404       .  A
C2655      F2662   1.355       .  S
C2656      C2657   1.409       .  A
C2656      H2661   1.079       .  S
C2657      C2658   1.413       .  A
C2658      F2659   1.356       .  S
C2663      C2664   1.409       .  A
C2663      C2668   1.405       .  A
C2663      H2670   1.080       .  S
C2664      C2665   1.413       .  A
C2665      C2666   1.405       .  A
C2665      F2672   1.356       .  S
C2666      C2667   1.408       .  A
C2666      H2671   1.080       .  S
C2667      C2668   1.412       .  A
C2668      F2669   1.356       .  S
C2673      C2674   1.409       .  A
C2673      C2678   1.403       .  A
C2673      H2680   1.078       .  S
C2674      C2675   1.412       .  A
C2675      C2676   1.405       .  A
C2675      F2682   1.356       .  S
C2676      C2677   1.410       .  A
C2676      H2681   1.078       .  S
C2677      C2678   1.411       .  A
C2678      F2679   1.355       .  S
C2683      C2684   1.409       .  A
C2683      C2688   1.403       .  A
C2683      H2690   1.079       .  S
C2684      C2685   1.413       .  A
C2685      C2686   1.405       .  A
C2685      F2692   1.356       .  S
C2686      C2687   1.410       .  A
C2686      H2691   1.079       .  S
C2687      C2688   1.411       .  A
C2688      F2689   1.355       .  S
C2693      H2700   1.082       .  S
C2694      C2695   1.409       .  A
C2695      C2696   1.400       .  A
C2695      F2702   1.356       .  S
C2696      C2697   1.407       .  A
C2696      H2701   1.082       .  S
C2697      C2698   1.412       .  A
C2698      F2699   1.356       .  S
C2703      C2704   1.407       .  A
C2703      C2708   1.401       .  A
C2703      H2710   1.082       .  S
C2705      F2712   1.357       .  S
C2706      C3103   1.406   1_554  A
C2706      H2711   1.083       .  S
C2707      C3102   1.406       .  A
C2707      C2708   1.408       .  A
C2708      F2709   1.356       .  S
C2713      C2714   1.408       .  A
C2713      C2718   1.402       .  A
C2713      H2720   1.081       .  S
C2714      C2715   1.413       .  A
C2715      C2716   1.405       .  A
C2715      F2722   1.356       .  S
C2716      C2717   1.409       .  A
C2716      H2721   1.082       .  S
C2717      C2718   1.414       .  A
C2718      F2719   1.356       .  S
C2723      C2724   1.409       .  A
C2723      C2728   1.402       .  A
C2723      H2730   1.082       .  S
C2724      C2725   1.412       .  A
C2725      C2726   1.406       .  A
C2725      F2732   1.356       .  S
C2726      C2727   1.410       .  A
C2726      H2731   1.082       .  S
C2727      C2728   1.414       .  A
C2728      F2729   1.356       .  S
C2733      C2734   1.403       .  A
C2733      H2740   1.083       .  S
C2735      C2736   1.390       .  A
C2735      F2742   1.357       .  S
C2736      C2737   1.402       .  A
C2736      H2741   1.083       .  S
C2737      C2738   1.405       .  A
C2738      F2739   1.357       .  S
C2743      H2750   1.083       .  S
C2744      C2745   1.404       .  A
C2745      C2746   1.389       .  A
C2745      F2752   1.357       .  S
C2746      C2747   1.402       .  A
C2746      H2751   1.083       .  S
C2747      C3144   1.406       .  A
C2748      C3143   1.406       .  A
C2748      F2749   1.357       .  S
C2753      C2754   1.409       .  A
C2753      C2758   1.403       .  A
C2753      H2760   1.079       .  S
C2754      C2755   1.411       .  A
C2755      C2756   1.405       .  A
C2755      F2762   1.356       .  S
C2756      C2757   1.409       .  A
C2756      H2761   1.080       .  S
C2757      C2758   1.412       .  A
C2758      F2759   1.356       .  S
C2763      C2764   1.408       .  A
C2763      C2768   1.404       .  A
C2763      H2770   1.079       .  S
C2764      C2765   1.414       .  A
C2765      C2766   1.405       .  A
C2765      F2772   1.356       .  S
C2766      C2767   1.409       .  A
C2766      H2771   1.079       .  S
C2767      C2768   1.414       .  A
C2768      F2769   1.355       .  S
C2773      C2775   1.547       .  S
C2773      C2777   1.549       .  S
C2773      C2776   1.522       .  S
C2773      C3150   1.546       .  S
C2774      C2778   1.547       .  S
C2774      C2780   1.549       .  S
C2774      C2779   1.529       .  S
C2774      C3163   1.545       .  S
C2775      C2783   1.380       .  A
C2776      C2787   1.367       .  A
C2777      C2791   1.379       .  A
C2778      C2781   1.381       .  A
C2779      C2785   1.373       .  A
C2780      C2788   1.382       .  A
C2781      N2782   1.353       .  A
C2781      H2794   1.081       .  S
N2782      C2883   1.428       .  S
C2783      H2784   1.080       .  S
C2785      H2795   1.082       .  S
N2786      C2787   1.356   1_554  A
C2787      H2793   1.082       .  S
C2788      N2789   1.355       .  A
C2788      H2790   1.080       .  S
N2789      C3021   1.432       .  S
C2791      H2792   1.080       .  S
C2796      C2798   1.549       .  S
C2796      C2800   1.544       .  S
C2796      C2799   1.526       .  S
C2796      C3160   1.546       .  S
C2797      C2801   1.547       .  S
C2797      C2803   1.549       .  S
C2797      C2802   1.524       .  S
C2797      C3153   1.544       .  S
C2798      C2806   1.382       .  A
C2798      C2801   1.405       .  A
C2799      C2810   1.369       .  A
C2799      C2802   1.389       .  A
C2800      C2814   1.376       .  A
C2800      C2803   1.405       .  A
C2801      C2804   1.379       .  A
C2802      C2808   1.370       .  A
C2803      C2811   1.383       .  A
C2804      N2805   1.353       .  A
C2804      H2817   1.081       .  S
N2805      C2806   1.354       .  A
N2805      C2909   1.429       .  S
C2806      H2807   1.080       .  S
C2808      N2809   1.357       .  A
C2808      H2818   1.083       .  S
N2809      C2810   1.357       .  A
N2809      C3130   1.430       .  S
C2810      H2816   1.082       .  S
C2811      N2812   1.355       .  A
C2811      H2813   1.081       .  S
N2812      C2814   1.353       .  A
N2812      C3046   1.429       .  S
C2814      H2815   1.080       .  S
C2819      C2821   1.549       .  S
C2819      C2823   1.541       .  S
C2819      C2822   1.549       .  S
C2819      C3110   1.544       .  S
C2820      C2824   1.543       .  S
C2820      C2826   1.546       .  S
C2820      C2825   1.541       .  S
C2820      C3120   1.544       .  S
C2821      C2829   1.389       .  A
C2822      C2833   1.382       .  A
C2823      C2837   1.385       .  A
C2824      C2827   1.387       .  A
C2825      C2831   1.379       .  A
C2826      C2834   1.388       .  A
C2827      H2840   1.082       .  S
N2828      C2829   1.353       .  A
N2828      C2881   1.439       .  S
C2829      H2830   1.082       .  S
C2831      H2841   1.081       .  S
N2832      C2833   1.361       .  A
C2833      H2839   1.081       .  S
C2834      H2836   1.082       .  S
N2835      C2837   1.356       .  A
C2837      H2838   1.082       .  S
C2842      C2844   1.538       .  S
C2842      C2846   1.547       .  S
C2842      C2845   1.545       .  S
C2842      C3123   1.545       .  S
C2843      C2847   1.546       .  S
C2843      C2849   1.538       .  S
C2843      C2848   1.545       .  S
C2843      C3113   1.544       .  S
C2844      C2852   1.385       .  A
C2844      C2847   1.405       .  A
C2845      C2856   1.379       .  A
C2845      C2848   1.396       .  A
C2846      C2860   1.385       .  A
C2846      C2849   1.405       .  A
C2847      C2850   1.386       .  A
C2848      C2854   1.380       .  A
C2849      C2857   1.385       .  A
C2850      N2851   1.352       .  A
C2850      H2863   1.082       .  S
N2851      C2852   1.354       .  A
N2851      C2903   1.435       .  S
C2852      H2853   1.083       .  S
C2854      N2855   1.361       .  A
C2854      H2864   1.081       .  S
N2855      C2856   1.362       .  A
C2856      H2862   1.081       .  S
C2857      N2858   1.353       .  A
C2857      H2859   1.082       .  S
N2858      C2860   1.353       .  A
N2858      C3047   1.434       .  S
C2860      H2861   1.082       .  S
O2865      C2881   1.277       .  A
C2866      O2879   1.270       .  A
C2866      C2889   1.444       .  S
O2868      C2886   1.276       .  A
O2868     Cd2877   2.097       .  S
O2869      C2883   1.274       .  A
O2869     Cd2873   2.069       .  S
Zn2871     O2882   1.985   1_565  S
Zn2871     O2884   2.028       .  S
O2872     Cd2877   2.066       .  S
Cd2873     O2875   2.027       .  S
Cd2874     O2878   2.012       .  S
Cd2874     O2887   2.063       .  S
O2876     Cd2877   1.993       .  S
Cd2877     O2879   2.026       .  S
O2878      C2885   1.269       .  A
C2880      N2920   1.432       .  S
C2880      O2884   1.276       .  A
C2885      C2908   1.436       .  S
C2886      N2973   1.436       .  S
O2888      C2904   1.275       .  A
O2888     Zn2894   2.021       .  S
C2889      O2902   1.272       .  A
O2890      C2903   1.273       .  A
O2891     Cd2900   2.075       .  S
O2892      C2906   1.272       .  A
O2892     Cd2896   2.064       .  S
O2893      C2904   1.271       .  A
Zn2894     O2905   1.975   1_565  S
O2895      C2906   1.277       .  A
O2895     Cd2900   2.108       .  S
Cd2896     O2898   2.010       .  S
Cd2896     O2899   1.987       .  S
Cd2897     O2901   2.026       .  S
Cd2897     O2910   2.067       .  S
O2898      C2908   1.269       .  A
O2899     Cd2900   1.992       .  S
Cd2900     O2902   2.032       .  S
C2903      O2907   1.276       .  A
C2904      N2943   1.429       .  S
C2906      N2996   1.439       .  S
C2909      O2910   1.273       .  A
C2911      C2913   1.550       .  S
C2911      C2915   1.550       .  S
C2911      C2914   1.524       .  S
C2911      C3070   1.546       .  S
C2912      C2916   1.548       .  S
C2912      C2918   1.549       .  S
C2912      C2917   1.528       .  S
C2912      C3080   1.544       .  S
C2913      C2921   1.380       .  A
C2914      C2925   1.368       .  A
C2915      C2929   1.383       .  A
C2916      C2919   1.381       .  A
C2917      C2923   1.373       .  A
C2918      C2926   1.383       .  A
C2919      H2932   1.080       .  S
N2920      C2921   1.354       .  A
C2921      H2922   1.080       .  S
C2923      H2933   1.082       .  S
N2924      C2925   1.357   1_554  A
N2924      C3143   1.431       .  S
C2925      H2931   1.083       .  S
C2926      H2928   1.080       .  S
N2927      C2929   1.353       .  A
N2927      C3018   1.432       .  S
C2929      H2930   1.080       .  S
C2934      C2936   1.548       .  S
C2934      C2938   1.547       .  S
C2934      C2937   1.526       .  S
C2934      C3083   1.546       .  S
C2935      C2939   1.547       .  S
C2935      C2941   1.551       .  S
C2935      C2940   1.524       .  S
C2935      C3073   1.545       .  S
C2936      C2944   1.381       .  A
C2936      C2939   1.405       .  A
C2937      C2948   1.370       .  A
C2937      C2940   1.389       .  A
C2938      C2952   1.380       .  A
C2938      C2941   1.405       .  A
C2939      C2942   1.380       .  A
C2940      C2946   1.369       .  A
C2941      C2949   1.384       .  A
C2942      N2943   1.353       .  A
C2942      H2955   1.080       .  S
N2943      C2944   1.353       .  A
C2944      H2945   1.079       .  S
C2946      N2947   1.356       .  A
C2946      H2956   1.082       .  S
N2947      C2948   1.357       .  A
N2947      C3133   1.430       .  S
C2948      H2954   1.082       .  S
C2949      N2950   1.355       .  A
C2949      H2951   1.081       .  S
N2950      C2952   1.353       .  A
N2950      C3027   1.431       .  S
C2952      H2953   1.080       .  S
C2957      C2959   1.550       .  S
C2957      C2961   1.549       .  S
C2957      C2960   1.529       .  S
C2957      C3060   1.546       .  S
C2958      C2962   1.550       .  S
C2958      C2964   1.552       .  S
C2958      C2963   1.538       .  S
C2958      C3050   1.544       .  S
C2959      C2967   1.380       .  A
C2960      C2971   1.376       .  A
C2961      C2975   1.382       .  A
C2962      C2965   1.387       .  A
C2963      C2969   1.381       .  A
C2964      C2972   1.385       .  A
C2965      N2966   1.357       .  A
C2965      H2978   1.081       .  S
N2966      C3004   1.436       .  S
C2967      H2968   1.081       .  S
C2969      N2970   1.363       .  A
C2969      H2979   1.081       .  S
N2970      C3103   1.445       .  S
C2971      H2977   1.083       .  S
C2972      N2973   1.356       .  A
C2972      H2974   1.081       .  S
C2975      H2976   1.081       .  S
C2980      C2982   1.548       .  S
C2980      C2984   1.553       .  S
C2980      C2983   1.534       .  S
C2980      C3053   1.545       .  S
C2981      C2985   1.556       .  S
C2981      C2987   1.552       .  S
C2981      C2986   1.535       .  S
C2981      C3063   1.545       .  S
C2982      C2990   1.380       .  A
C2982      C2985   1.402       .  A
C2983      C2994   1.379       .  A
C2983      C2986   1.388       .  A
C2984      C2998   1.388       .  A
C2984      C2987   1.401       .  A
C2985      C2988   1.391       .  A
C2986      C2992   1.378       .  A
C2987      C2995   1.384       .  A
C2988      N2989   1.358       .  A
C2988      H3001   1.081       .  S
N2989      C2990   1.357       .  A
N2989      C3042   1.438       .  S
C2990      H2991   1.081       .  S
C2992      N2993   1.363       .  A
C2992      H3002   1.082       .  S
N2993      C2994   1.363       .  A
N2993      C3093   1.450       .  S
C2994      H3000   1.081       .  S
C2995      N2996   1.357       .  A
C2995      H2997   1.081       .  S
N2996      C2998   1.356       .  A
C2998      H2999   1.081       .  S
O3003      C3019   1.270       .  A
O3003     Zn3009   1.982       .  S
C3004      O3020   1.277       .  A
O3005     Cd3012   2.074       .  S
O3006      C3024   1.268       .  A
O3006     Cd3015   2.022       .  S
O3007     Cd3011   2.071       .  S
O3008      C3019   1.267       .  A
O3008     Cd3011   2.015       .  S
Zn3009     O3020   2.059       .  S
Zn3009     O3022   2.032       .  S
Zn3009     O3014   1.951       .  S
O3010      C3021   1.273       .  A
O3010     Cd3015   2.073       .  S
Cd3011     O3013   2.083       .  S
Cd3011     O3014   1.989       .  S
Cd3012     O3016   2.096       .  S
Cd3012     O3025   2.043       .  S
Cd3015     O3017   2.054       .  S
O3016      C3023   1.277       .  A
C3018      O3022   1.277       .  A
C3019      C3044   1.427       .  S
C3024      O3025   1.271       .  A
C3024      C3041   1.431       .  S
O3026      C3042   1.279       .  A
O3026     Zn3032   2.076       .  S
C3027      O3043   1.278       .  A
C3027      O3040   1.273       .  A
O3028      C3041   1.267       .  A
O3028     Cd3035   2.017       .  S
O3029      C3047   1.274       .  A
O3029     Cd3038   2.084       .  S
O3030      C3044   1.268       .  A
O3030     Cd3034   2.021       .  S
O3031      C3042   1.272       .  A
O3031     Cd3034   2.051       .  S
Zn3032     O3043   2.038       .  S
Zn3032     O3045   1.994       .  S
Zn3032     O3037   1.948       .  S
O3033      C3044   1.269       .  A
O3033     Cd3038   2.031       .  S
Cd3034     O3036   2.070       .  S
Cd3034     O3037   1.991       .  S
Cd3035     O3039   2.063       .  S
Cd3035     O3048   2.075       .  S
Cd3035     O3037   1.984       .  S
O3036      C3046   1.272       .  A
O3037     Cd3038   2.001       .  S
Cd3038     O3040   2.067       .  S
O3039      C3046   1.274       .  A
C3041      O3045   1.271       .  A
C3047      O3048   1.274       .  A
C3049      C3050   1.409       .  A
C3049      C3054   1.405       .  A
C3049      H3056   1.080       .  S
C3050      C3051   1.413       .  A
C3051      C3052   1.404       .  A
C3051      F3058   1.355       .  S
C3052      C3053   1.409       .  A
C3052      H3057   1.079       .  S
C3053      C3054   1.413       .  A
C3054      F3055   1.356       .  S
C3059      C3060   1.409       .  A
C3059      C3064   1.405       .  A
C3059      H3066   1.080       .  S
C3060      C3061   1.413       .  A
C3061      C3062   1.405       .  A
C3061      F3068   1.356       .  S
C3062      C3063   1.408       .  A
C3062      H3067   1.080       .  S
C3063      C3064   1.412       .  A
C3064      F3065   1.356       .  S
C3069      C3070   1.409       .  A
C3069      C3074   1.403       .  A
C3069      H3076   1.078       .  S
C3070      C3071   1.412       .  A
C3071      C3072   1.405       .  A
C3071      F3078   1.356       .  S
C3072      C3073   1.410       .  A
C3072      H3077   1.078       .  S
C3073      C3074   1.411       .  A
C3074      F3075   1.355       .  S
C3079      C3080   1.409       .  A
C3079      C3084   1.403       .  A
C3079      H3086   1.079       .  S
C3080      C3081   1.413       .  A
C3081      C3082   1.405       .  A
C3081      F3088   1.356       .  S
C3082      C3083   1.410       .  A
C3082      H3087   1.079       .  S
C3083      C3084   1.411       .  A
C3084      F3085   1.355       .  S
C3089      H3096   1.082       .  S
C3090      C3091   1.409       .  A
C3091      C3092   1.400       .  A
C3091      F3098   1.356       .  S
C3092      C3093   1.407       .  A
C3092      H3097   1.082       .  S
C3093      C3094   1.412       .  A
C3094      F3095   1.356       .  S
C3099      C3100   1.407       .  A
C3099      C3104   1.401       .  A
C3099      H3106   1.082       .  S
C3101      F3108   1.357       .  S
C3102      H3107   1.083       .  S
C3103      C3104   1.408       .  A
C3104      F3105   1.356       .  S
C3109      C3110   1.408       .  A
C3109      C3114   1.402       .  A
C3109      H3116   1.081       .  S
C3110      C3111   1.413       .  A
C3111      C3112   1.405       .  A
C3111      F3118   1.356       .  S
C3112      C3113   1.409       .  A
C3112      H3117   1.082       .  S
C3113      C3114   1.414       .  A
C3114      F3115   1.356       .  S
C3119      C3120   1.409       .  A
C3119      C3124   1.402       .  A
C3119      H3126   1.082       .  S
C3120      C3121   1.412       .  A
C3121      C3122   1.406       .  A
C3121      F3128   1.356       .  S
C3122      C3123   1.410       .  A
C3122      H3127   1.082       .  S
C3123      C3124   1.414       .  A
C3124      F3125   1.356       .  S
C3129      C3130   1.403       .  A
C3129      H3136   1.083       .  S
C3131      C3132   1.390       .  A
C3131      F3138   1.357       .  S
C3132      C3133   1.402       .  A
C3132      H3137   1.083       .  S
C3133      C3134   1.405       .  A
C3134      F3135   1.357       .  S
C3139      H3146   1.083       .  S
C3140      C3141   1.404   1_554  A
C3141      C3142   1.389       .  A
C3141      F3148   1.357       .  S
C3142      C3143   1.402   1_556  A
C3142      H3147   1.083       .  S
C3144      F3145   1.357       .  S
C3149      C3150   1.409       .  A
C3149      C3154   1.403       .  A
C3149      H3156   1.079       .  S
C3150      C3151   1.411       .  A
C3151      C3152   1.405       .  A
C3151      F3158   1.356       .  S
C3152      C3153   1.409       .  A
C3152      H3157   1.080       .  S
C3153      C3154   1.412       .  A
C3154      F3155   1.356       .  S
C3159      C3160   1.408       .  A
C3159      C3164   1.404       .  A
C3159      H3166   1.079       .  S
C3160      C3161   1.414       .  A
C3161      C3162   1.405       .  A
C3161      F3168   1.356       .  S
C3162      C3163   1.409       .  A
C3162      H3167   1.079       .  S
C3163      C3164   1.414       .  A
C3164      F3165   1.355       .  S
