geometry optimzed in LAMMPS
_audit_creation_date              2020-11-30 
_audit_creation_method            'lammps2cif' 
_symmetry_space_group_name_H-M    'P1' 
_symmetry_Int_Tables_number       1 
_symmetry_cell_setting            triclinic 
loop_ 
_symmetry_equiv_pos_as_xyz 
  x,y,z 
_cell_length_a                    34.16693993 
_cell_length_b                    34.057709918983555 
_cell_length_c                    26.023857670938916 
_cell_angle_alpha                 89.94025796474347 
_cell_angle_beta                  89.97510838713838 
_cell_angle_gamma                 119.97043092151183 
loop_ 
_atom_site_label 
_atom_site_type_symbol 
_atom_site_fract_x 
_atom_site_fract_y 
_atom_site_fract_z 
_atom_site_charge 
O1          O  0.37718598  0.26151806  0.32349015    -0.78600
C2          C  0.42012332  0.16069509  0.33345472     0.82500
O3          O  0.38692965  0.22906271  0.14541490    -0.79700
O4          O  0.33257869  0.07540692  0.21857371    -0.81200
O5          O  0.23842648  0.11608862  0.32638235    -0.81000
O6          O  0.30239556  0.22849012  0.31737879    -0.79600
Zn7        Zn  0.38780247  0.21908030  0.27871644     1.55700
O8          O  0.27167228  0.07451321  0.31818968    -0.81000
Cd9        Cd  0.28109180  0.16929058  0.27919898     1.59700
Cd10       Cd  0.33357785  0.16742598  0.17326680     1.59600
O11         O  0.24240796  0.16730627  0.21848789    -0.81000
O12         O  0.33419631  0.16783215  0.25178876    -1.91500
Cd13       Cd  0.33108900  0.11235120  0.27947188     1.59900
O14         O  0.27199042  0.15907506  0.14541906    -0.80900
O15         O  0.38429122  0.12306933  0.32624650    -0.79600
C16         C  0.42077930  0.25876370  0.17078517     0.82900
C17         C  0.34033087  0.26098789  0.33209615     0.82600
O18         O  0.42440990  0.19789119  0.31698870    -0.78600
C19         C  0.23928633  0.07974406  0.33405821     0.83400
O20         O  0.42389921  0.25621737  0.21926277    -0.78600
C21         C  0.24124068  0.16209636  0.16998470     0.83500
C22         C  0.33789574  0.07960542  0.17005991     0.83900
O23         O  0.34154330  0.11380110  0.14558178    -0.81100
C24         C  0.49985722  0.12842485  0.39038945     0.80100
N25         N  0.03980577  0.16622044  0.37816103    -0.78200
C26         C  0.03946735  0.20211897  0.35566942     0.82600
N27         N  0.49981562  0.19978849  0.34540871    -0.78100
C28         C  0.46017016  0.16232561  0.35566046     0.82700
N29         N  0.45986302  0.12608109  0.37815161    -0.79800
O30         O  0.07525836  0.27343095  0.31673493    -0.78600
C31         C  0.15961635  0.42053037  0.33296306     0.82500
O32         O  0.11323053  0.34183968  0.14534782    -0.79700
O33         O  0.25694502  0.42530525  0.21830656    -0.81200
O34         O  0.22822394  0.30286626  0.31791199    -0.81000
O35         O  0.11544540  0.23892938  0.32657504    -0.79600
Zn36       Zn  0.11213394  0.33142757  0.27874659     1.55700
O37         O  0.26172093  0.37783413  0.32550864    -0.81000
Cd38       Cd  0.16870154  0.28115629  0.27958480     1.59700
Cd39       Cd  0.16632919  0.33342933  0.17338737     1.59600
O40         O  0.16700698  0.24230423  0.21897389    -0.81000
O41         O  0.16565276  0.33355869  0.25187647    -1.91500
Cd42       Cd  0.21868621  0.38830572  0.27918310     1.59900
O43         O  0.15830878  0.27169186  0.14587245    -0.80900
O44         O  0.19753552  0.42598459  0.31817855    -0.79600
C45         C  0.07965067  0.33835784  0.17071881     0.82900
C46         C  0.07954155  0.24060318  0.33345816     0.82600
O47         O  0.12271817  0.38430778  0.32396139    -0.78600
C48         C  0.26080454  0.34061284  0.33327739     0.83400
O49         O  0.07650106  0.33297913  0.21924404    -0.78600
C50         C  0.16176654  0.24108751  0.17045949     0.83500
C51         C  0.25824511  0.42105387  0.16985554     0.83900
O52         O  0.22785541  0.38686620  0.14547789    -0.81100
C53         C  0.36713114  0.50006489  0.10667559     0.80100
N54         N  0.32932762  0.45998874  0.11934021    -0.78200
C55         C  0.29403622  0.46042245  0.14314123     0.82600
N56         N  0.29732161  0.50035361  0.15524912    -0.78100
C57         C  0.33410885  0.04013933  0.14333853     0.82700
N58         N  0.36966606  0.04026553  0.11954519    -0.79800
C59         C  0.12661029  0.50010026  0.39002948     0.80100
N60         N  0.16447577  0.04024819  0.37814971    -0.78200
C61         C  0.20031258  0.03982420  0.35593458     0.82600
N62         N  0.19776529  0.50003606  0.34560500    -0.77800
C63         C  0.16029510  0.46027174  0.35515058     0.82700
N64         N  0.12404544  0.45989523  0.37737028    -0.79800
C65         C  0.13234911  0.13216576  0.10691277     0.80100
N66         N  0.17006912  0.12981501  0.11953265    -0.78200
C67         C  0.20535120  0.16553787  0.14346788     0.82600
N68         N  0.20211660  0.20218420  0.15573144    -0.78100
C69         C  0.16543699  0.20525554  0.14385894     0.82700
N70         N  0.12992937  0.16987651  0.11993892    -0.79800
C71         C  0.37365745  0.37386388  0.38838007     0.80100
N72         N  0.37605969  0.33612361  0.37592153    -0.78200
C73         C  0.33977699  0.30021546  0.35383980     0.82600
N74         N  0.30235588  0.30250027  0.34433937    -0.78100
C75         C  0.29989937  0.33978480  0.35467463     0.82700
N76         N  0.33579282  0.37610668  0.37674477    -0.79800
C77         C  0.50026566  0.36799242  0.10746801     0.80100
N78         N  0.04030213  0.37044838  0.12042204    -0.78200
C79         C  0.03999486  0.33498716  0.14513183     0.82600
N80         N  0.50027347  0.29842835  0.15777055    -0.78100
C81         C  0.46055292  0.29512917  0.14521700     0.82700
N82         N  0.46028140  0.33024829  0.12050266    -0.79800
O83         O  0.09579234  0.05841833  0.06864843    -0.78600
C84         C  0.99993354  0.40653300  0.08109971     0.82500
O85         O  0.05755488  0.00091689  0.39594643    -0.79700
O86         O  0.40674097  0.40641679  0.46732538    -0.81200
O87         O  0.44095830  0.03783663  0.07020515    -0.81000
O88         O  0.05869704  0.09683139  0.07051091    -0.79600
Zn89       Zn  0.05468703  0.50006138  0.02818490     1.55700
O90         O  0.40294765  0.46218569  0.06931445    -0.81000
Cd91       Cd  0.00006044  0.05531926  0.02908320     1.59700
Cd92       Cd  0.00028562  0.00100725  0.42449486     1.59600
O93         O  0.49999931  0.09469163  0.46883495    -0.81000
O94         O  0.00080262  0.00034205  0.00245371    -1.91500
Cd95       Cd  0.44508968  0.44506799  0.02836227     1.59900
O96         O  0.50011333  0.05887139  0.39701740    -0.80900
O97         O  0.46197338  0.40320776  0.07001982    -0.79600
C98         C  0.08999548  0.00019560  0.41941007     0.82900
C99         C  0.09347880  0.09356412  0.08098790     0.82600
O100        O  0.03732807  0.44176574  0.06908531    -0.78600
C101        C  0.40587071  0.49999720  0.08100595     0.83400
O102        O  0.09207504  0.99973319  0.46823526    -0.78600
C103        C  0.49995693  0.09187183  0.42010063     0.83500
C104        C  0.40983709  0.41004801  0.41863416     0.83900
O105        O  0.44279831  0.44359366  0.39607790    -0.81100
O106        O  0.37718608  0.26151804  0.82349006    -0.78600
C107        C  0.42012328  0.16069514  0.83345463     0.82500
O108        O  0.38692963  0.22906267  0.64541487    -0.79700
O109        O  0.33257860  0.07540687  0.71857366    -0.81200
O110        O  0.23842661  0.11608860  0.82638235    -0.81000
O111        O  0.30239568  0.22849012  0.81737872    -0.79600
Zn112      Zn  0.38780239  0.21908027  0.77871629     1.55700
O113        O  0.27167235  0.07451315  0.81818968    -0.81000
Cd114      Cd  0.28109173  0.16929054  0.77919914     1.59700
Cd115      Cd  0.33357776  0.16742593  0.67326667     1.59600
O116        O  0.24240812  0.16730627  0.71848776    -0.81000
O117        O  0.33419617  0.16783209  0.75178865    -1.91500
Cd118      Cd  0.33108890  0.11235117  0.77947174     1.59900
O119        O  0.27199052  0.15907505  0.64541886    -0.80900
O120        O  0.38429116  0.12306937  0.82624633    -0.79600
C121        C  0.42077929  0.25876370  0.67078510     0.82900
C122        C  0.34033094  0.26098786  0.83209609     0.82600
O123        O  0.42440988  0.19789125  0.81698860    -0.78600
C124        C  0.23928642  0.07974406  0.83405827     0.83400
O125        O  0.42389922  0.25621751  0.71926273    -0.78600
C126        C  0.24124081  0.16209639  0.66998454     0.83500
C127        C  0.33789564  0.07960538  0.67005985     0.83900
O128        O  0.34154318  0.11380104  0.64558172    -0.81100
C129        C  0.49985713  0.12842480  0.89038956     0.80100
N130        N  0.03980572  0.16622042  0.87816122    -0.78200
C131        C  0.03946730  0.20211891  0.85566951     0.82600
N132        N  0.49981556  0.19978843  0.84540872    -0.78100
C133        C  0.46017009  0.16232557  0.85566048     0.82700
N134        N  0.45986294  0.12608105  0.87815159    -0.79800
O135        O  0.07525826  0.27343093  0.81673511    -0.78600
C136        C  0.15961635  0.42053036  0.83296295     0.82500
O137        O  0.11323061  0.34183988  0.64534775    -0.79700
O138        O  0.25694496  0.42530529  0.71830640    -0.81200
O139        O  0.22822393  0.30286622  0.81791190    -0.81000
O140        O  0.11544532  0.23892933  0.82657486    -0.79600
Zn141      Zn  0.11213384  0.33142752  0.77874675     1.55700
O142        O  0.26172100  0.37783412  0.82550842    -0.81000
Cd143      Cd  0.16870166  0.28115626  0.77958464     1.59700
Cd144      Cd  0.16632933  0.33342932  0.67338724     1.59600
O145        O  0.16700691  0.24230418  0.71897372    -0.81000
O146        O  0.16565281  0.33355881  0.75187641    -1.91500
Cd147      Cd  0.21868627  0.38830596  0.77918296     1.59900
O148        O  0.15830885  0.27169191  0.64587229    -0.80900
O149        O  0.19753550  0.42598459  0.81817841    -0.79600
C150        C  0.07965065  0.33835784  0.67071874     0.82900
C151        C  0.07954148  0.24060313  0.83345817     0.82600
O152        O  0.12271814  0.38430778  0.82396130    -0.78600
C153        C  0.26080454  0.34061279  0.83327726     0.83400
O154        O  0.07650100  0.33297904  0.71924397    -0.78600
C155        C  0.16176653  0.24108752  0.67045932     0.83500
C156        C  0.25824503  0.42105390  0.66985540     0.83900
O157        O  0.22785538  0.38686622  0.64547773    -0.81100
C158        C  0.36713108  0.50006490  0.60667568     0.80100
N159        N  0.32932753  0.45998875  0.61934011    -0.78200
C160        C  0.29403612  0.46042245  0.64314115     0.82600
N161        N  0.29732155  0.50035362  0.65524918    -0.78100
C162        C  0.33410877  0.04013929  0.64333846     0.82700
N163        N  0.36966601  0.04026559  0.61954503    -0.79800
C164        C  0.12661030  0.50010020  0.89002943     0.80100
N165        N  0.16447577  0.04024818  0.87814983    -0.78200
C166        C  0.20031257  0.03982419  0.85593455     0.82600
N167        N  0.19776532  0.50003607  0.84560493    -0.77800
C168        C  0.16029512  0.46027170  0.85515049     0.82700
N169        N  0.12404543  0.45989520  0.87737012    -0.79800
C170        C  0.13234918  0.13216579  0.60691267     0.80100
N171        N  0.17006915  0.12981500  0.61953255    -0.78200
C172        C  0.20535127  0.16553787  0.64346776     0.82600
N173        N  0.20211665  0.20218421  0.65573128    -0.78100
C174        C  0.16543705  0.20525556  0.64385879     0.82700
N175        N  0.12992941  0.16987653  0.61993880    -0.79800
C176        C  0.37365739  0.37386383  0.88838018     0.80100
N177        N  0.37605963  0.33612354  0.87592172    -0.78200
C178        C  0.33977706  0.30021542  0.85383988     0.82600
N179        N  0.30235594  0.30250024  0.84433924    -0.78100
C180        C  0.29989935  0.33978472  0.85467457     0.82700
N181        N  0.33579268  0.37610655  0.87674491    -0.79800
C182        C  0.50026562  0.36799238  0.60746803     0.80100
N183        N  0.04030207  0.37044832  0.62042202    -0.78200
C184        C  0.03999480  0.33498710  0.64513179     0.82600
N185        N  0.50027343  0.29842830  0.65777047    -0.78100
C186        C  0.46055287  0.29512910  0.64521688     0.82700
N187        N  0.46028136  0.33024826  0.62050261    -0.79800
O188        O  0.09579240  0.05841839  0.56864847    -0.78600
C189        C  0.99993357  0.40653296  0.58109969     0.82500
O190        O  0.05755483  0.00091680  0.89594626    -0.79700
O191        O  0.40674089  0.40641678  0.96732538    -0.81200
O192        O  0.44095823  0.03783667  0.57020505    -0.81000
O193        O  0.05869717  0.09683158  0.57051081    -0.79600
Zn194      Zn  0.05468693  0.50006133  0.52818479     1.55700
O195        O  0.40294766  0.46218579  0.56931463    -0.81000
Cd196      Cd  0.00006050  0.05531950  0.52908337     1.59700
Cd197      Cd  0.00028576  0.00100721  0.92449476     1.59600
O198        O  0.49999921  0.09469156  0.96883506    -0.81000
O199        O  0.00080268  0.00034221  0.50245377    -1.91500
Cd200      Cd  0.44508959  0.44506795  0.52836248     1.59900
O201        O  0.50011325  0.05887134  0.89701752    -0.80900
O202        O  0.46197342  0.40320767  0.57001967    -0.79600
C203        C  0.08999544  0.00019563  0.91941002     0.82900
C204        C  0.09347886  0.09356423  0.58098784     0.82600
O205        O  0.03732811  0.44176577  0.56908545    -0.78600
C206        C  0.40587069  0.49999733  0.58100597     0.83400
O207        O  0.09207502  0.99973340  0.96823521    -0.78600
C208        C  0.49995681  0.09187177  0.92010075     0.83500
C209        C  0.40983704  0.41004799  0.91863419     0.83900
O210        O  0.44279841  0.44359355  0.89607794    -0.81100
O211        O  0.37718493  0.76151762  0.32349316    -0.78600
C212        C  0.42012372  0.66069504  0.33345449     0.82500
O213        O  0.38692825  0.72906316  0.14541698    -0.79700
O214        O  0.33257766  0.57540624  0.21857283    -0.81200
O215        O  0.23842974  0.61608853  0.32639006    -0.81000
O216        O  0.30239451  0.72848901  0.31738105    -0.79600
Zn217      Zn  0.38780195  0.71908056  0.27871836     1.55700
O218        O  0.27167508  0.57451306  0.31819353    -0.81000
Cd219      Cd  0.28109106  0.66928876  0.27920275     1.59700
Cd220      Cd  0.33357687  0.66742593  0.17326942     1.59600
O221        O  0.24240392  0.66730017  0.21849227    -0.81000
O222        O  0.33419593  0.66783178  0.25179107    -1.91500
Cd223      Cd  0.33108951  0.61235073  0.27947190     1.59900
O224        O  0.27198872  0.65907328  0.14542286    -0.80900
O225        O  0.38429243  0.62306909  0.32624448    -0.79600
C226        C  0.42077872  0.75876401  0.17078640     0.82900
C227        C  0.34032946  0.76098690  0.33209900     0.82600
O228        O  0.42440963  0.69789149  0.31699055    -0.78600
C229        C  0.23929027  0.57974431  0.33406544     0.83400
O230        O  0.42389932  0.75621793  0.21926402    -0.78600
C231        C  0.24123732  0.66209136  0.16998883     0.83500
C232        C  0.33789521  0.57960585  0.17005911     0.83900
O233        O  0.34154346  0.61380234  0.14558227    -0.81100
C234        C  0.49985760  0.62842370  0.39038589     0.80100
N235        N  0.03980612  0.66621890  0.37815680    -0.78200
C236        C  0.03946770  0.70211760  0.35566590     0.82600
N237        N  0.49981603  0.69978776  0.34540655    -0.78100
C238        C  0.46017064  0.66232533  0.35565924     0.82700
N239        N  0.45986342  0.62608054  0.37814966    -0.79800
O240        O  0.07525845  0.77342922  0.31673137    -0.78600
C241        C  0.15961190  0.92052888  0.33295472     0.82500
O242        O  0.11323172  0.84183757  0.14534248    -0.79700
O243        O  0.25694591  0.92530283  0.21830809    -0.81200
O244        O  0.22822290  0.80286427  0.31791083    -0.81000
O245        O  0.11544498  0.73892697  0.32657004    -0.79600
Zn246      Zn  0.11213281  0.83142444  0.27874124     1.55700
O247        O  0.26171745  0.87783159  0.32551240    -0.81000
Cd248      Cd  0.16870166  0.78115454  0.27958140     1.59700
Cd249      Cd  0.16633050  0.83342821  0.17338432     1.59600
O250        O  0.16700796  0.74230343  0.21897091    -0.81000
O251        O  0.16565265  0.83355685  0.25187343    -1.91500
Cd252      Cd  0.21868471  0.88830355  0.27918309     1.59900
O253        O  0.15831082  0.77169129  0.14586909    -0.80900
O254        O  0.19753185  0.92598284  0.31817393    -0.79600
C255        C  0.07965026  0.83835266  0.17071276     0.82900
C256        C  0.07954154  0.74060131  0.33345407     0.82600
O257        O  0.12271426  0.88430586  0.32395226    -0.78600
C258        C  0.26080196  0.84061047  0.33327940     0.83400
O259        O  0.07649982  0.83297263  0.21923768    -0.78600
C260        C  0.16176801  0.74108684  0.17045655     0.83500
C261        C  0.25824652  0.92105268  0.16985694     0.83900
O262        O  0.22785697  0.88686596  0.14547787    -0.81100
C263        C  0.36713333  0.00006467  0.10667967     0.80100
N264        N  0.32932990  0.95998833  0.11934395    -0.78200
C265        C  0.29403807  0.96042174  0.14314405     0.82600
N266        N  0.29732288  0.00035272  0.15525161    -0.78100
C267        C  0.33410772  0.54014003  0.14333621     0.82700
N268        N  0.36966454  0.54026598  0.11954205    -0.79800
C269        C  0.12660550  0.00009910  0.39002118     0.80100
N270        N  0.16448059  0.54024923  0.37815813    -0.78200
C271        C  0.20031806  0.53982516  0.35594492     0.82600
N272        N  0.19775943  0.00003517  0.34559312    -0.77800
C273        C  0.16028947  0.96027071  0.35513941     0.82700
N274        N  0.12404037  0.95989410  0.37736081    -0.79800
C275        C  0.13234730  0.63216353  0.10691335     0.80100
N276        N  0.17006571  0.62981065  0.11953603    -0.78200
C277        C  0.20534813  0.66553302  0.14347145     0.82600
N278        N  0.20211553  0.70218088  0.15573229    -0.78100
C279        C  0.16543753  0.70525419  0.14385706     0.82700
N280        N  0.12992950  0.66987575  0.11993700    -0.79800
C281        C  0.37365378  0.87386156  0.38838589     0.80100
N282        N  0.37605676  0.83612178  0.37592653    -0.78200
C283        C  0.33977485  0.80021392  0.35384349     0.82600
N284        N  0.30235361  0.80249843  0.34434247    -0.78100
C285        C  0.29989639  0.83978251  0.35467834     0.82700
N286        N  0.33578913  0.87610416  0.37674973    -0.79800
C287        C  0.50026705  0.86799118  0.10746631     0.80100
N288        N  0.04030294  0.87044465  0.12041716    -0.78200
C289        C  0.03999465  0.83498256  0.14512598     0.82600
N290        N  0.50027272  0.79842526  0.15776711    -0.78100
C291        C  0.46055255  0.79512843  0.14521667     0.82700
N292        N  0.46028222  0.83024850  0.12050317    -0.79800
O293        O  0.09578924  0.55841611  0.06865060    -0.78600
C294        C  0.99993592  0.90653279  0.08109922     0.82500
O295        O  0.05756013  0.50091949  0.39594870    -0.79700
O296        O  0.40674001  0.90641505  0.46733046    -0.81200
O297        O  0.44095650  0.53783659  0.07020171    -0.81000
O298        O  0.05869627  0.59683157  0.07050833    -0.79600
Zn299      Zn  0.05468924  0.00006211  0.02818336     1.55700
O300        O  0.40295002  0.96218575  0.06931928    -0.81000
Cd301      Cd  0.00005927  0.55531943  0.02908054     1.59700
Cd302      Cd  0.00028899  0.50100844  0.42449301     1.59600
O303        O  0.49999778  0.59469050  0.46883154    -0.81000
O304        O  0.00080195  0.50034222  0.00245194    -1.91500
Cd305      Cd  0.44509108  0.94506815  0.02836567     1.59900
O306        O  0.50011605  0.55887168  0.39701458    -0.80900
O307        O  0.46197583  0.90320858  0.07002177    -0.79600
C308        C  0.08999887  0.50019678  0.41941506     0.82900
C309        C  0.09347681  0.59356280  0.08098795     0.82600
O310        O  0.03733061  0.94176507  0.06908337    -0.78600
C311        C  0.40587288  0.99999717  0.08101024     0.83400
O312        O  0.09207520  0.49973259  0.46824031    -0.78600
C313        C  0.49995738  0.59187112  0.42009734     0.83500
C314        C  0.40983380  0.91004631  0.41863910     0.83900
O315        O  0.44279354  0.94359255  0.39608180    -0.81100
O316        O  0.37718489  0.76151754  0.82349338    -0.78600
C317        C  0.42012369  0.66069507  0.83345453     0.82500
O318        O  0.38692816  0.72906311  0.64541704    -0.79700
O319        O  0.33257753  0.57540619  0.71857293    -0.81200
O320        O  0.23842965  0.61608846  0.82638999    -0.81000
O321        O  0.30239445  0.72848896  0.81738130    -0.79600
Zn322      Zn  0.38780207  0.71908053  0.77871852     1.55700
O323        O  0.27167516  0.57451311  0.81819385    -0.81000
Cd324      Cd  0.28109096  0.66928873  0.77920295     1.59700
Cd325      Cd  0.33357677  0.66742589  0.67326933     1.59600
O326        O  0.24240384  0.66730012  0.71849237    -0.81000
O327        O  0.33419587  0.66783175  0.75179106    -1.91500
Cd328      Cd  0.33108941  0.61235068  0.77947210     1.59900
O329        O  0.27198866  0.65907321  0.64542295    -0.80900
O330        O  0.38429239  0.62306906  0.82624448    -0.79600
C331        C  0.42077867  0.75876404  0.67078636     0.82900
C332        C  0.34032947  0.76098684  0.83209924     0.82600
O333        O  0.42440958  0.69789144  0.81699054    -0.78600
C334        C  0.23929026  0.57974433  0.83406556     0.83400
O335        O  0.42389935  0.75621810  0.71926402    -0.78600
C336        C  0.24123726  0.66209132  0.66998890     0.83500
C337        C  0.33789511  0.57960586  0.67005921     0.83900
O338        O  0.34154348  0.61380242  0.64558240    -0.81100
C339        C  0.49985758  0.62842370  0.89038586     0.80100
N340        N  0.03980610  0.66621889  0.87815668    -0.78200
C341        C  0.03946769  0.70211763  0.85566596     0.82600
N342        N  0.49981604  0.69978792  0.84540682    -0.78100
C343        C  0.46017059  0.66232538  0.85565941     0.82700
N344        N  0.45986341  0.62608059  0.87814967    -0.79800
O345        O  0.07525844  0.77342914  0.81673130    -0.78600
C346        C  0.15961182  0.92052891  0.83295460     0.82500
O347        O  0.11323177  0.84183780  0.64534267    -0.79700
O348        O  0.25694590  0.92530282  0.71830816    -0.81200
O349        O  0.22822290  0.80286424  0.81791084    -0.81000
O350        O  0.11544502  0.73892691  0.82656999    -0.79600
Zn351      Zn  0.11213273  0.83142440  0.77874143     1.55700
O352        O  0.26171734  0.87783154  0.82551233    -0.81000
Cd353      Cd  0.16870180  0.78115450  0.77958158     1.59700
Cd354      Cd  0.16633040  0.83342817  0.67338452     1.59600
O355        O  0.16700789  0.74230338  0.71897105    -0.81000
O356        O  0.16565255  0.83355675  0.75187349    -1.91500
Cd357      Cd  0.21868460  0.88830349  0.77918296     1.59900
O358        O  0.15831070  0.77169124  0.64586925    -0.80900
O359        O  0.19753177  0.92598282  0.81817382    -0.79600
C360        C  0.07965024  0.83835268  0.67071298     0.82900
C361        C  0.07954156  0.74060126  0.83345398     0.82600
O362        O  0.12271417  0.88430595  0.82395212    -0.78600
C363        C  0.26080192  0.84061045  0.83327941     0.83400
O364        O  0.07649982  0.83297253  0.71923788    -0.78600
C365        C  0.16176789  0.74108678  0.67045668     0.83500
C366        C  0.25824654  0.92105263  0.66985704     0.83900
O367        O  0.22785691  0.88686591  0.64547803    -0.81100
C368        C  0.36713323  0.00006466  0.60667950     0.80100
N369        N  0.32932991  0.95998836  0.61934382    -0.78200
C370        C  0.29403808  0.96042170  0.64314410     0.82600
N371        N  0.29732290  0.00035270  0.65525162    -0.78100
C372        C  0.33410760  0.54014002  0.64333625     0.82700
N373        N  0.36966447  0.54026601  0.61954221    -0.79800
C374        C  0.12660549  0.00009909  0.89002127     0.80100
N375        N  0.16448059  0.54024918  0.87815819    -0.78200
C376        C  0.20031805  0.53982512  0.85594489     0.82600
N377        N  0.19775931  0.00003516  0.84559296    -0.77800
C378        C  0.16028940  0.96027071  0.85513933     0.82700
N379        N  0.12404033  0.95989407  0.87736093    -0.79800
C380        C  0.13234730  0.63216355  0.60691329     0.80100
N381        N  0.17006568  0.62981066  0.61953594    -0.78200
C382        C  0.20534812  0.66553303  0.64347149     0.82600
N383        N  0.20211541  0.70218079  0.65573246    -0.78100
C384        C  0.16543746  0.70525414  0.64385720     0.82700
N385        N  0.12992945  0.66987574  0.61993696    -0.79800
C386        C  0.37365377  0.87386154  0.88838588     0.80100
N387        N  0.37605676  0.83612173  0.87592674    -0.78200
C388        C  0.33977476  0.80021382  0.85384371     0.82600
N389        N  0.30235358  0.80249835  0.84434268    -0.78100
C390        C  0.29989637  0.83978249  0.85467833     0.82700
N391        N  0.33578919  0.87610418  0.87674961    -0.79800
C392        C  0.50026703  0.86799114  0.60746626     0.80100
N393        N  0.04030292  0.87044466  0.62041734    -0.78200
C394        C  0.03999460  0.83498256  0.64512619     0.82600
N395        N  0.50027264  0.79842518  0.65776704    -0.78100
C396        C  0.46055248  0.79512833  0.64521649     0.82700
N397        N  0.46028220  0.83024846  0.62050300    -0.79800
O398        O  0.09578916  0.55841608  0.56865046    -0.78600
C399        C  0.99993600  0.90653281  0.58109919     0.82500
O400        O  0.05756033  0.50091969  0.89594877    -0.79700
O401        O  0.40673995  0.90641503  0.96733044    -0.81200
O402        O  0.44095643  0.53783669  0.57020157    -0.81000
O403        O  0.05869620  0.59683155  0.57050820    -0.79600
Zn404      Zn  0.05468920  0.00006209  0.52818327     1.55700
O405        O  0.40294991  0.96218577  0.56931919    -0.81000
Cd406      Cd  0.00005916  0.55531940  0.52908040     1.59700
Cd407      Cd  0.00028916  0.50100843  0.92449288     1.59600
O408        O  0.49999792  0.59469048  0.96883153    -0.81000
O409        O  0.00080180  0.50034214  0.50245207    -1.91500
Cd410      Cd  0.44509102  0.94506814  0.52836586     1.59900
O411        O  0.50011633  0.55887180  0.89701448    -0.80900
O412        O  0.46197589  0.90320866  0.57002196    -0.79600
C413        C  0.08999894  0.50019676  0.91941512     0.82900
C414        C  0.09347674  0.59356279  0.58098784     0.82600
O415        O  0.03733067  0.94176502  0.56908320    -0.78600
C416        C  0.40587283  0.99999726  0.58101009     0.83400
O417        O  0.09207529  0.49973252  0.96824039    -0.78600
C418        C  0.49995749  0.59187116  0.92009731     0.83500
C419        C  0.40983378  0.91004636  0.91863911     0.83900
O420        O  0.44279349  0.94359266  0.89608185    -0.81100
O421        O  0.87718598  0.26151806  0.32349015    -0.78600
C422        C  0.92012332  0.16069509  0.33345472     0.82500
O423        O  0.88692963  0.22906270  0.14541481    -0.79700
O424        O  0.83257870  0.07540692  0.21857371    -0.81200
O425        O  0.73842649  0.11608862  0.32638235    -0.81000
O426        O  0.80239556  0.22849012  0.31737879    -0.79600
Zn427      Zn  0.88780248  0.21908030  0.27871642     1.55700
O428        O  0.77167229  0.07451321  0.31818968    -0.81000
Cd429      Cd  0.78109180  0.16929058  0.27919898     1.59700
Cd430      Cd  0.83357785  0.16742598  0.17326680     1.59600
O431        O  0.74240796  0.16730627  0.21848789    -0.81000
O432        O  0.83419631  0.16783215  0.25178877    -1.91500
Cd433      Cd  0.83108900  0.11235120  0.27947188     1.59900
O434        O  0.77199042  0.15907506  0.14541906    -0.80900
O435        O  0.88429122  0.12306933  0.32624650    -0.79600
C436        C  0.92077929  0.25876368  0.17078508     0.82900
C437        C  0.84033087  0.26098789  0.33209615     0.82600
O438        O  0.92440990  0.19789119  0.31698870    -0.78600
C439        C  0.73928633  0.07974406  0.33405821     0.83400
O440        O  0.92389921  0.25621735  0.21926267    -0.78600
C441        C  0.74124068  0.16209636  0.16998470     0.83500
C442        C  0.83789574  0.07960542  0.17005991     0.83900
O443        O  0.84154330  0.11380110  0.14558178    -0.81100
C444        C  0.99985722  0.12842485  0.39038945     0.80100
N445        N  0.53980577  0.16622044  0.37816103    -0.78200
C446        C  0.53946735  0.20211897  0.35566942     0.82600
N447        N  0.99981562  0.19978849  0.34540871    -0.78100
C448        C  0.96017016  0.16232561  0.35566047     0.82700
N449        N  0.95986302  0.12608109  0.37815161    -0.79800
O450        O  0.57525837  0.27343095  0.31673493    -0.78600
C451        C  0.65961636  0.42053037  0.33296306     0.82500
O452        O  0.61323053  0.34183968  0.14534782    -0.79700
O453        O  0.75694502  0.42530525  0.21830656    -0.81200
O454        O  0.72822394  0.30286626  0.31791199    -0.81000
O455        O  0.61544540  0.23892938  0.32657504    -0.79600
Zn456      Zn  0.61213394  0.33142757  0.27874659     1.55700
O457        O  0.76172093  0.37783413  0.32550864    -0.81000
Cd458      Cd  0.66870154  0.28115629  0.27958480     1.59700
Cd459      Cd  0.66632919  0.33342933  0.17338737     1.59600
O460        O  0.66700699  0.24230423  0.21897389    -0.81000
O461        O  0.66565276  0.33355869  0.25187647    -1.91500
Cd462      Cd  0.71868621  0.38830572  0.27918310     1.59900
O463        O  0.65830878  0.27169186  0.14587245    -0.80900
O464        O  0.69753552  0.42598459  0.31817855    -0.79600
C465        C  0.57965067  0.33835784  0.17071881     0.82900
C466        C  0.57954155  0.24060318  0.33345816     0.82600
O467        O  0.62271817  0.38430778  0.32396139    -0.78600
C468        C  0.76080454  0.34061284  0.33327739     0.83400
O469        O  0.57650106  0.33297913  0.21924404    -0.78600
C470        C  0.66176654  0.24108751  0.17045949     0.83500
C471        C  0.75824511  0.42105387  0.16985554     0.83900
O472        O  0.72785541  0.38686620  0.14547789    -0.81100
C473        C  0.86713114  0.50006489  0.10667559     0.80100
N474        N  0.82932762  0.45998874  0.11934021    -0.78200
C475        C  0.79403622  0.46042245  0.14314123     0.82600
N476        N  0.79732161  0.50035361  0.15524912    -0.78100
C477        C  0.83410885  0.04013933  0.14333853     0.82700
N478        N  0.86966606  0.04026553  0.11954519    -0.79800
C479        C  0.62661029  0.50010026  0.39002948     0.80100
N480        N  0.66447577  0.04024819  0.37814971    -0.78200
C481        C  0.70031258  0.03982420  0.35593458     0.82600
N482        N  0.69776529  0.50003606  0.34560500    -0.77800
C483        C  0.66029510  0.46027174  0.35515058     0.82700
N484        N  0.62404544  0.45989523  0.37737028    -0.79800
C485        C  0.63234911  0.13216576  0.10691277     0.80100
N486        N  0.67006912  0.12981501  0.11953265    -0.78200
C487        C  0.70535120  0.16553787  0.14346788     0.82600
N488        N  0.70211660  0.20218420  0.15573144    -0.78100
C489        C  0.66543700  0.20525554  0.14385894     0.82700
N490        N  0.62992937  0.16987651  0.11993892    -0.79800
C491        C  0.87365746  0.37386389  0.38838001     0.80100
N492        N  0.87605969  0.33612360  0.37592152    -0.78200
C493        C  0.83977699  0.30021545  0.35383980     0.82600
N494        N  0.80235588  0.30250027  0.34433937    -0.78100
C495        C  0.79989936  0.33978479  0.35467463     0.82700
N496        N  0.83579281  0.37610667  0.37674476    -0.79800
C497        C  0.00026566  0.36799243  0.10746801     0.80100
N498        N  0.54030212  0.37044838  0.12042204    -0.78200
C499        C  0.53999486  0.33498716  0.14513183     0.82600
N500        N  0.00027347  0.29842835  0.15777054    -0.78100
C501        C  0.96055292  0.29512916  0.14521694     0.82700
N502        N  0.96028140  0.33024830  0.12050265    -0.79800
O503        O  0.59579234  0.05841833  0.06864843    -0.78600
C504        C  0.49993354  0.40653299  0.08109971     0.82500
O505        O  0.55755488  0.00091689  0.39594643    -0.79700
O506        O  0.90674098  0.40641680  0.46732529    -0.81200
O507        O  0.94095830  0.03783663  0.07020515    -0.81000
O508        O  0.55869704  0.09683139  0.07051091    -0.79600
Zn509      Zn  0.55468703  0.50006138  0.02818490     1.55700
O510        O  0.90294765  0.46218569  0.06931445    -0.81000
Cd511      Cd  0.50006044  0.05531926  0.02908320     1.59700
Cd512      Cd  0.50028562  0.00100725  0.42449486     1.59600
O513        O  0.99999932  0.09469163  0.46883495    -0.81000
O514        O  0.50080262  0.00034205  0.00245371    -1.91500
Cd515      Cd  0.94508968  0.44506799  0.02836227     1.59900
O516        O  0.00011333  0.05887139  0.39701740    -0.80900
O517        O  0.96197338  0.40320776  0.07001982    -0.79600
C518        C  0.58999548  0.00019560  0.41941007     0.82900
C519        C  0.59347880  0.09356412  0.08098790     0.82600
O520        O  0.53732807  0.44176574  0.06908531    -0.78600
C521        C  0.90587071  0.49999720  0.08100595     0.83400
O522        O  0.59207504  0.99973319  0.46823526    -0.78600
C523        C  0.99995693  0.09187183  0.42010063     0.83500
C524        C  0.90983710  0.41004803  0.41863407     0.83900
O525        O  0.94279833  0.44359367  0.39607782    -0.81100
O526        O  0.87718608  0.26151804  0.82349006    -0.78600
C527        C  0.92012328  0.16069514  0.83345463     0.82500
O528        O  0.88692959  0.22906268  0.64541487    -0.79700
O529        O  0.83257860  0.07540687  0.71857366    -0.81200
O530        O  0.73842659  0.11608855  0.82638235    -0.81000
O531        O  0.80239568  0.22849012  0.81737872    -0.79600
Zn532      Zn  0.88780239  0.21908027  0.77871629     1.55700
O533        O  0.77167233  0.07451310  0.81818967    -0.81000
Cd534      Cd  0.78109173  0.16929053  0.77919915     1.59700
Cd535      Cd  0.83357776  0.16742593  0.67326667     1.59600
O536        O  0.74240815  0.16730627  0.71848781    -0.81000
O537        O  0.83419617  0.16783209  0.75178866    -1.91500
Cd538      Cd  0.83108890  0.11235116  0.77947174     1.59900
O539        O  0.77199050  0.15907505  0.64541887    -0.80900
O540        O  0.88429116  0.12306937  0.82624633    -0.79600
C541        C  0.92077923  0.25876373  0.67078510     0.82900
C542        C  0.84033094  0.26098786  0.83209609     0.82600
O543        O  0.92440988  0.19789125  0.81698859    -0.78600
C544        C  0.73928640  0.07974400  0.83405825     0.83400
O545        O  0.92389917  0.25621751  0.71926272    -0.78600
C546        C  0.74124081  0.16209639  0.66998459     0.83500
C547        C  0.83789564  0.07960538  0.67005985     0.83900
O548        O  0.84154318  0.11380104  0.64558172    -0.81100
C549        C  0.99985713  0.12842480  0.89038956     0.80100
N550        N  0.53980572  0.16622042  0.87816122    -0.78200
C551        C  0.53946730  0.20211891  0.85566951     0.82600
N552        N  0.99981556  0.19978843  0.84540872    -0.78100
C553        C  0.96017009  0.16232557  0.85566048     0.82700
N554        N  0.95986294  0.12608105  0.87815159    -0.79800
O555        O  0.57525826  0.27343093  0.81673511    -0.78600
C556        C  0.65961635  0.42053036  0.83296295     0.82500
O557        O  0.61323061  0.34183988  0.64534775    -0.79700
O558        O  0.75694496  0.42530529  0.71830640    -0.81200
O559        O  0.72822393  0.30286622  0.81791190    -0.81000
O560        O  0.61544532  0.23892933  0.82657486    -0.79600
Zn561      Zn  0.61213384  0.33142752  0.77874675     1.55700
O562        O  0.76172100  0.37783412  0.82550842    -0.81000
Cd563      Cd  0.66870167  0.28115626  0.77958464     1.59700
Cd564      Cd  0.66632933  0.33342932  0.67338724     1.59600
O565        O  0.66700691  0.24230418  0.71897372    -0.81000
O566        O  0.66565281  0.33355881  0.75187641    -1.91500
Cd567      Cd  0.71868627  0.38830596  0.77918296     1.59900
O568        O  0.65830885  0.27169192  0.64587229    -0.80900
O569        O  0.69753550  0.42598459  0.81817841    -0.79600
C570        C  0.57965067  0.33835785  0.67071874     0.82900
C571        C  0.57954148  0.24060313  0.83345817     0.82600
O572        O  0.62271814  0.38430778  0.82396130    -0.78600
C573        C  0.76080454  0.34061279  0.83327726     0.83400
O574        O  0.57650100  0.33297905  0.71924397    -0.78600
C575        C  0.66176653  0.24108753  0.67045931     0.83500
C576        C  0.75824503  0.42105390  0.66985540     0.83900
O577        O  0.72785538  0.38686622  0.64547773    -0.81100
C578        C  0.86713108  0.50006490  0.60667568     0.80100
N579        N  0.82932753  0.45998875  0.61934011    -0.78200
C580        C  0.79403612  0.46042245  0.64314115     0.82600
N581        N  0.79732155  0.50035362  0.65524918    -0.78100
C582        C  0.83410877  0.04013929  0.64333846     0.82700
N583        N  0.86966601  0.04026559  0.61954503    -0.79800
C584        C  0.62661030  0.50010020  0.89002943     0.80100
N585        N  0.66447577  0.04024816  0.87814982    -0.78200
C586        C  0.70031255  0.03982417  0.85593455     0.82600
N587        N  0.69776532  0.50003607  0.84560493    -0.77800
C588        C  0.66029512  0.46027170  0.85515049     0.82700
N589        N  0.62404543  0.45989520  0.87737012    -0.79800
C590        C  0.63234920  0.13216580  0.60691268     0.80100
N591        N  0.67006914  0.12981499  0.61953260    -0.78200
C592        C  0.70535124  0.16553785  0.64346788     0.82600
N593        N  0.70211663  0.20218420  0.65573134    -0.78100
C594        C  0.66543706  0.20525558  0.64385879     0.82700
N595        N  0.62992941  0.16987653  0.61993880    -0.79800
C596        C  0.87365739  0.37386383  0.88838018     0.80100
N597        N  0.87605963  0.33612354  0.87592172    -0.78200
C598        C  0.83977707  0.30021542  0.85383988     0.82600
N599        N  0.80235594  0.30250024  0.84433924    -0.78100
C600        C  0.79989936  0.33978472  0.85467457     0.82700
N601        N  0.83579268  0.37610655  0.87674491    -0.79800
C602        C  0.00026562  0.36799238  0.60746802     0.80100
N603        N  0.54030208  0.37044833  0.62042202    -0.78200
C604        C  0.53999481  0.33498711  0.64513179     0.82600
N605        N  0.00027339  0.29842829  0.65777047    -0.78100
C606        C  0.96055284  0.29512910  0.64521688     0.82700
N607        N  0.96028135  0.33024827  0.62050259    -0.79800
O608        O  0.59579240  0.05841839  0.56864847    -0.78600
C609        C  0.49993357  0.40653296  0.58109969     0.82500
O610        O  0.55755483  0.00091680  0.89594626    -0.79700
O611        O  0.90674089  0.40641678  0.96732538    -0.81200
O612        O  0.94095823  0.03783667  0.57020506    -0.81000
O613        O  0.55869718  0.09683159  0.57051081    -0.79600
Zn614      Zn  0.55468693  0.50006133  0.52818479     1.55700
O615        O  0.90294766  0.46218579  0.56931462    -0.81000
Cd616      Cd  0.50006050  0.05531950  0.52908337     1.59700
Cd617      Cd  0.50028576  0.00100721  0.92449476     1.59600
O618        O  0.99999921  0.09469156  0.96883506    -0.81000
O619        O  0.50080268  0.00034221  0.50245377    -1.91500
Cd620      Cd  0.94508958  0.44506794  0.52836247     1.59900
O621        O  0.00011325  0.05887134  0.89701752    -0.80900
O622        O  0.96197342  0.40320767  0.57001967    -0.79600
C623        C  0.58999544  0.00019563  0.91941002     0.82900
C624        C  0.59347887  0.09356424  0.58098784     0.82600
O625        O  0.53732811  0.44176577  0.56908545    -0.78600
C626        C  0.90587069  0.49999733  0.58100597     0.83400
O627        O  0.59207503  0.99973340  0.96823521    -0.78600
C628        C  0.99995681  0.09187177  0.92010075     0.83500
C629        C  0.90983704  0.41004799  0.91863419     0.83900
O630        O  0.94279841  0.44359355  0.89607794    -0.81100
O631        O  0.87718493  0.76151762  0.32349316    -0.78600
C632        C  0.92012372  0.66069504  0.33345449     0.82500
O633        O  0.88692825  0.72906316  0.14541698    -0.79700
O634        O  0.83257766  0.57540624  0.21857283    -0.81200
O635        O  0.73842974  0.61608853  0.32639006    -0.81000
O636        O  0.80239451  0.72848901  0.31738105    -0.79600
Zn637      Zn  0.88780195  0.71908056  0.27871836     1.55700
O638        O  0.77167509  0.57451306  0.31819353    -0.81000
Cd639      Cd  0.78109105  0.66928876  0.27920275     1.59700
Cd640      Cd  0.83357687  0.66742593  0.17326942     1.59600
O641        O  0.74240389  0.66730017  0.21849222    -0.81000
O642        O  0.83419594  0.66783178  0.25179107    -1.91500
Cd643      Cd  0.83108951  0.61235073  0.27947190     1.59900
O644        O  0.77198874  0.65907327  0.14542286    -0.80900
O645        O  0.88429243  0.62306909  0.32624448    -0.79600
C646        C  0.92077872  0.75876401  0.17078640     0.82900
C647        C  0.84032947  0.76098690  0.33209900     0.82600
O648        O  0.92440963  0.69789149  0.31699055    -0.78600
C649        C  0.73929027  0.57974431  0.33406544     0.83400
O650        O  0.92389932  0.75621793  0.21926402    -0.78600
C651        C  0.74123733  0.66209137  0.16998878     0.83500
C652        C  0.83789521  0.57960585  0.17005911     0.83900
O653        O  0.84154346  0.61380234  0.14558227    -0.81100
C654        C  0.99985760  0.62842370  0.39038589     0.80100
N655        N  0.53980612  0.66621890  0.37815680    -0.78200
C656        C  0.53946770  0.70211760  0.35566590     0.82600
N657        N  0.99981603  0.69978776  0.34540655    -0.78100
C658        C  0.96017064  0.66232533  0.35565924     0.82700
N659        N  0.95986342  0.62608053  0.37814966    -0.79800
O660        O  0.57525845  0.77342922  0.31673137    -0.78600
C661        C  0.65961191  0.92052888  0.33295472     0.82500
O662        O  0.61323172  0.84183757  0.14534248    -0.79700
O663        O  0.75694591  0.92530283  0.21830809    -0.81200
O664        O  0.72822290  0.80286427  0.31791083    -0.81000
O665        O  0.61544498  0.73892697  0.32657004    -0.79600
Zn666      Zn  0.61213281  0.83142444  0.27874124     1.55700
O667        O  0.76171745  0.87783159  0.32551240    -0.81000
Cd668      Cd  0.66870166  0.78115454  0.27958140     1.59700
Cd669      Cd  0.66633050  0.83342821  0.17338432     1.59600
O670        O  0.66700797  0.74230343  0.21897091    -0.81000
O671        O  0.66565265  0.83355685  0.25187343    -1.91500
Cd672      Cd  0.71868471  0.88830355  0.27918309     1.59900
O673        O  0.65831082  0.77169129  0.14586910    -0.80900
O674        O  0.69753185  0.92598284  0.31817393    -0.79600
C675        C  0.57965026  0.83835266  0.17071276     0.82900
C676        C  0.57954155  0.74060131  0.33345407     0.82600
O677        O  0.62271426  0.88430586  0.32395226    -0.78600
C678        C  0.76080196  0.84061047  0.33327940     0.83400
O679        O  0.57649982  0.83297263  0.21923768    -0.78600
C680        C  0.66176801  0.74108684  0.17045655     0.83500
C681        C  0.75824652  0.92105268  0.16985694     0.83900
O682        O  0.72785697  0.88686596  0.14547787    -0.81100
C683        C  0.86713334  0.00006467  0.10667967     0.80100
N684        N  0.82932990  0.95998833  0.11934395    -0.78200
C685        C  0.79403807  0.96042174  0.14314405     0.82600
N686        N  0.79732288  0.00035272  0.15525161    -0.78100
C687        C  0.83410772  0.54014003  0.14333621     0.82700
N688        N  0.86966454  0.54026598  0.11954205    -0.79800
C689        C  0.62660550  0.00009910  0.39002118     0.80100
N690        N  0.66448059  0.54024923  0.37815813    -0.78200
C691        C  0.70031806  0.53982516  0.35594492     0.82600
N692        N  0.69775943  0.00003517  0.34559312    -0.77800
C693        C  0.66028947  0.96027071  0.35513941     0.82700
N694        N  0.62404037  0.95989410  0.37736081    -0.79800
C695        C  0.63234729  0.63216352  0.10691334     0.80100
N696        N  0.67006572  0.62981066  0.11953598    -0.78200
C697        C  0.70534817  0.66553305  0.14347132     0.82600
N698        N  0.70211554  0.70218089  0.15573222    -0.78100
C699        C  0.66543752  0.70525417  0.14385705     0.82700
N700        N  0.62992950  0.66987575  0.11993700    -0.79800
C701        C  0.87365378  0.87386156  0.38838589     0.80100
N702        N  0.87605676  0.83612178  0.37592653    -0.78200
C703        C  0.83977485  0.80021392  0.35384349     0.82600
N704        N  0.80235362  0.80249843  0.34434247    -0.78100
C705        C  0.79989639  0.83978251  0.35467834     0.82700
N706        N  0.83578913  0.87610416  0.37674973    -0.79800
C707        C  0.00026704  0.86799118  0.10746631     0.80100
N708        N  0.54030294  0.87044465  0.12041716    -0.78200
C709        C  0.53999465  0.83498256  0.14512598     0.82600
N710        N  0.00027272  0.79842526  0.15776711    -0.78100
C711        C  0.96055255  0.79512843  0.14521667     0.82700
N712        N  0.96028222  0.83024850  0.12050317    -0.79800
O713        O  0.59578923  0.55841611  0.06865060    -0.78600
C714        C  0.49993592  0.90653279  0.08109922     0.82500
O715        O  0.55756013  0.50091949  0.39594870    -0.79700
O716        O  0.90674001  0.90641505  0.46733046    -0.81200
O717        O  0.94095650  0.53783659  0.07020171    -0.81000
O718        O  0.55869626  0.59683157  0.07050833    -0.79600
Zn719      Zn  0.55468924  0.00006211  0.02818336     1.55700
O720        O  0.90295002  0.96218575  0.06931928    -0.81000
Cd721      Cd  0.50005927  0.55531943  0.02908054     1.59700
Cd722      Cd  0.50028899  0.50100844  0.42449301     1.59600
O723        O  0.99999778  0.59469050  0.46883154    -0.81000
O724        O  0.50080195  0.50034222  0.00245194    -1.91500
Cd725      Cd  0.94509108  0.94506815  0.02836567     1.59900
O726        O  0.00011605  0.55887168  0.39701458    -0.80900
O727        O  0.96197583  0.90320858  0.07002177    -0.79600
C728        C  0.58999887  0.50019678  0.41941506     0.82900
C729        C  0.59347680  0.59356280  0.08098795     0.82600
O730        O  0.53733061  0.94176507  0.06908337    -0.78600
C731        C  0.90587288  0.99999717  0.08101024     0.83400
O732        O  0.59207520  0.49973259  0.46824031    -0.78600
C733        C  0.99995738  0.59187112  0.42009735     0.83500
C734        C  0.90983380  0.91004631  0.41863910     0.83900
O735        O  0.94279354  0.94359255  0.39608180    -0.81100
O736        O  0.87718490  0.76151754  0.82349338    -0.78600
C737        C  0.92012369  0.66069507  0.83345453     0.82500
O738        O  0.88692816  0.72906311  0.64541704    -0.79700
O739        O  0.83257753  0.57540619  0.71857293    -0.81200
O740        O  0.73842965  0.61608846  0.82638999    -0.81000
O741        O  0.80239445  0.72848896  0.81738130    -0.79600
Zn742      Zn  0.88780208  0.71908053  0.77871852     1.55700
O743        O  0.77167516  0.57451311  0.81819385    -0.81000
Cd744      Cd  0.78109096  0.66928873  0.77920295     1.59700
Cd745      Cd  0.83357677  0.66742589  0.67326933     1.59600
O746        O  0.74240384  0.66730012  0.71849237    -0.81000
O747        O  0.83419587  0.66783175  0.75179106    -1.91500
Cd748      Cd  0.83108941  0.61235068  0.77947210     1.59900
O749        O  0.77198866  0.65907321  0.64542295    -0.80900
O750        O  0.88429239  0.62306906  0.82624448    -0.79600
C751        C  0.92077867  0.75876404  0.67078636     0.82900
C752        C  0.84032947  0.76098684  0.83209924     0.82600
O753        O  0.92440958  0.69789144  0.81699054    -0.78600
C754        C  0.73929026  0.57974433  0.83406556     0.83400
O755        O  0.92389936  0.75621810  0.71926402    -0.78600
C756        C  0.74123726  0.66209132  0.66998890     0.83500
C757        C  0.83789512  0.57960586  0.67005921     0.83900
O758        O  0.84154348  0.61380242  0.64558240    -0.81100
C759        C  0.99985758  0.62842370  0.89038586     0.80100
N760        N  0.53980610  0.66621889  0.87815668    -0.78200
C761        C  0.53946769  0.70211763  0.85566596     0.82600
N762        N  0.99981604  0.69978792  0.84540682    -0.78100
C763        C  0.96017059  0.66232538  0.85565941     0.82700
N764        N  0.95986341  0.62608059  0.87814967    -0.79800
O765        O  0.57525845  0.77342914  0.81673130    -0.78600
C766        C  0.65961182  0.92052890  0.83295460     0.82500
O767        O  0.61323177  0.84183780  0.64534267    -0.79700
O768        O  0.75694590  0.92530282  0.71830816    -0.81200
O769        O  0.72822291  0.80286424  0.81791084    -0.81000
O770        O  0.61544502  0.73892691  0.82656999    -0.79600
Zn771      Zn  0.61213273  0.83142440  0.77874143     1.55700
O772        O  0.76171734  0.87783154  0.82551233    -0.81000
Cd773      Cd  0.66870180  0.78115450  0.77958158     1.59700
Cd774      Cd  0.66633040  0.83342817  0.67338452     1.59600
O775        O  0.66700789  0.74230338  0.71897105    -0.81000
O776        O  0.66565255  0.83355675  0.75187349    -1.91500
Cd777      Cd  0.71868460  0.88830349  0.77918296     1.59900
O778        O  0.65831070  0.77169124  0.64586925    -0.80900
O779        O  0.69753177  0.92598282  0.81817382    -0.79600
C780        C  0.57965024  0.83835268  0.67071298     0.82900
C781        C  0.57954157  0.74060126  0.83345398     0.82600
O782        O  0.62271417  0.88430595  0.82395212    -0.78600
C783        C  0.76080192  0.84061045  0.83327941     0.83400
O784        O  0.57649982  0.83297253  0.71923788    -0.78600
C785        C  0.66176789  0.74108678  0.67045668     0.83500
C786        C  0.75824654  0.92105263  0.66985704     0.83900
O787        O  0.72785691  0.88686591  0.64547803    -0.81100
C788        C  0.86713323  0.00006466  0.60667950     0.80100
N789        N  0.82932991  0.95998836  0.61934382    -0.78200
C790        C  0.79403808  0.96042170  0.64314410     0.82600
N791        N  0.79732291  0.00035270  0.65525162    -0.78100
C792        C  0.83410760  0.54014002  0.64333625     0.82700
N793        N  0.86966447  0.54026601  0.61954221    -0.79800
C794        C  0.62660549  0.00009909  0.89002127     0.80100
N795        N  0.66448059  0.54024918  0.87815819    -0.78200
C796        C  0.70031805  0.53982512  0.85594489     0.82600
N797        N  0.69775929  0.00003513  0.84559296    -0.77800
C798        C  0.66028940  0.96027071  0.85513934     0.82700
N799        N  0.62404032  0.95989406  0.87736093    -0.79800
C800        C  0.63234730  0.63216355  0.60691329     0.80100
N801        N  0.67006568  0.62981066  0.61953594    -0.78200
C802        C  0.70534812  0.66553303  0.64347149     0.82600
N803        N  0.70211541  0.70218079  0.65573246    -0.78100
C804        C  0.66543746  0.70525414  0.64385720     0.82700
N805        N  0.62992946  0.66987574  0.61993696    -0.79800
C806        C  0.87365377  0.87386154  0.88838588     0.80100
N807        N  0.87605676  0.83612173  0.87592674    -0.78200
C808        C  0.83977476  0.80021382  0.85384371     0.82600
N809        N  0.80235358  0.80249835  0.84434268    -0.78100
C810        C  0.79989637  0.83978249  0.85467833     0.82700
N811        N  0.83578919  0.87610418  0.87674961    -0.79800
C812        C  0.00026703  0.86799114  0.60746626     0.80100
N813        N  0.54030292  0.87044466  0.62041734    -0.78200
C814        C  0.53999460  0.83498256  0.64512619     0.82600
N815        N  0.00027264  0.79842518  0.65776704    -0.78100
C816        C  0.96055248  0.79512833  0.64521649     0.82700
N817        N  0.96028220  0.83024846  0.62050300    -0.79800
O818        O  0.59578916  0.55841608  0.56865046    -0.78600
C819        C  0.49993600  0.90653281  0.58109919     0.82500
O820        O  0.55756033  0.50091969  0.89594877    -0.79700
O821        O  0.90673995  0.90641503  0.96733044    -0.81200
O822        O  0.94095643  0.53783669  0.57020157    -0.81000
O823        O  0.55869620  0.59683155  0.57050820    -0.79600
Zn824      Zn  0.55468920  0.00006209  0.52818327     1.55700
O825        O  0.90294992  0.96218577  0.56931919    -0.81000
Cd826      Cd  0.50005916  0.55531940  0.52908040     1.59700
Cd827      Cd  0.50028916  0.50100843  0.92449288     1.59600
O828        O  0.99999792  0.59469048  0.96883153    -0.81000
O829        O  0.50080180  0.50034214  0.50245207    -1.91500
Cd830      Cd  0.94509102  0.94506814  0.52836586     1.59900
O831        O  0.00011633  0.55887180  0.89701448    -0.80900
O832        O  0.96197589  0.90320866  0.57002196    -0.79600
C833        C  0.58999894  0.50019676  0.91941512     0.82900
C834        C  0.59347675  0.59356279  0.58098784     0.82600
O835        O  0.53733067  0.94176502  0.56908320    -0.78600
C836        C  0.90587284  0.99999726  0.58101009     0.83400
O837        O  0.59207529  0.49973252  0.96824039    -0.78600
C838        C  0.99995749  0.59187116  0.92009731     0.83500
C839        C  0.90983378  0.91004636  0.91863911     0.83900
O840        O  0.94279349  0.94359266  0.89608185    -0.81100
loop_ 
_geom_bond_atom_site_label_1 
_geom_bond_atom_site_label_2 
_geom_bond_distance 
_geom_bond_site_symmetry_2 
_ccdc_geom_bond_type 
O1           C17   1.270       .  A
O1           Zn7   2.026       .  S
C2           O18   1.274       .  A
C2           O15   1.269       .  A
C2           C28   1.461       .  S
O3           C16   1.277       .  A
O3          Cd10   2.104       .  S
O4           C22   1.273       .  A
O4          Cd13   2.041       .  S
O5           C19   1.268       .  A
O5           Cd9   2.067       .  S
O6           C17   1.273       .  A
O6           Cd9   2.030       .  S
Zn7          O18   1.995       .  S
Zn7          O20   1.988       .  S
Zn7          O12   1.924       .  S
O8           C19   1.274       .  A
O8          Cd13   2.044       .  S
Cd9          O11   2.040       .  S
Cd9          O12   1.973       .  S
Cd10         O14   2.107       .  S
Cd10         O23   2.104       .  S
Cd10         O12   2.044       .  S
O11          C21   1.273       .  A
O12         Cd13   1.974       .  S
Cd13         O15   2.064       .  S
O14          C21   1.277       .  A
C16          O20   1.273       .  A
C16          C81   1.463       .  S
C17          C73   1.460       .  S
C19          C61   1.461       .  S
C21          C67   1.462       .  S
C22          O23   1.277       .  A
C22          C57   1.461       .  S
C24         C103   1.466       .  S
C24          N29   1.366       .  A
C24         N445   1.366       .  A
N25          C26   1.360       .  A
N25         C444   1.366   1_455  A
C26          C46   1.460       .  S
C26         N447   1.344   1_455  A
N27          C28   1.344       .  A
N27         C446   1.344       .  A
C28          N29   1.361       .  A
O30          C46   1.274       .  A
O30         Zn36   1.994       .  S
C31          O47   1.270       .  A
C31          O44   1.273       .  A
C31          C63   1.462       .  S
O32          C45   1.277       .  A
O32         Cd39   2.104       .  S
O33          C51   1.273       .  A
O33         Cd42   2.038       .  S
O34          C48   1.274       .  A
O34         Cd38   2.044       .  S
O35          C46   1.269       .  A
O35         Cd38   2.063       .  S
Zn36         O47   2.028       .  S
Zn36         O49   1.987       .  S
Zn36         O41   1.925       .  S
O37          C48   1.268       .  A
O37         Cd42   2.066       .  S
Cd38         O40   2.042       .  S
Cd38         O41   1.975       .  S
Cd39         O43   2.106       .  S
Cd39         O52   2.105       .  S
Cd39         O41   2.043       .  S
O40          C50   1.273       .  A
O41         Cd42   1.973       .  S
Cd42         O44   2.032       .  S
O43          C50   1.277       .  A
C45          O49   1.273       .  A
C45          C79   1.462       .  S
C48          C75   1.461       .  S
C50          C69   1.462       .  S
C51          O52   1.277       .  A
C51          C55   1.461       .  S
C53         C101   1.483       .  S
C53          N54   1.370       .  A
C53         N268   1.370       .  A
N54          C55   1.362       .  A
C55          N56   1.345       .  A
N56         C267   1.345       .  A
C57          N58   1.361       .  A
C57         N266   1.345       .  A
N58         C263   1.370       .  A
C59         C308   1.467       .  S
C59          N64   1.368       .  A
C59         N270   1.368       .  A
N60          C61   1.360       .  A
N60         C269   1.368       .  A
C61         N272   1.341       .  A
N62          C63   1.342       .  A
N62         C271   1.341       .  A
C63          N64   1.361       .  A
C65          C99   1.485       .  S
C65          N66   1.371       .  A
C65          N70   1.370       .  A
N66          C67   1.363       .  A
C67          N68   1.346       .  A
N68          C69   1.345       .  A
C69          N70   1.361       .  A
C71         C104   1.465       .  S
C71          N72   1.368       .  A
C71          N76   1.368       .  A
N72          C73   1.360       .  A
C73          N74   1.342       .  A
N74          C75   1.341       .  A
C75          N76   1.360       .  A
C77         C504   1.486       .  S
C77          N82   1.370       .  A
C77         N498   1.370       .  A
N78          C79   1.363       .  A
N78         C497   1.370       .  A
C79         N500   1.346       .  A
N80          C81   1.345       .  A
N80         C499   1.346       .  A
C81          N82   1.362       .  A
O83          C99   1.280       .  A
O83        Zn299   2.061       .  S
C84         O100   1.280   1_655  A
C84         O517   1.277       .  A
C84         C497   1.486   1_655  S
O85          C98   1.277       .  A
O85         Cd92   2.094       .  S
O86         C104   1.272       .  A
O86        Cd200   2.063       .  S
O87         C311   1.278   1_545  A
O87        Cd511   2.091       .  S
O88          C99   1.277       .  A
O88         Cd91   2.086       .  S
Zn89        O100   2.060       .  S
Zn89        O293   2.061       .  S
Zn89        O417   2.019   1_554  S
Zn89        O304   1.964       .  S
O90         C101   1.278       .  A
O90         Cd95   2.095       .  S
Cd91        O507   2.091   1_455  S
Cd91        O618   2.063   1_454  S
Cd91         O94   2.009       .  S
Cd92        O516   2.099       .  S
Cd92        O735   2.097   1_445  S
Cd92        O199   2.029       .  S
O93         C103   1.272       .  A
O93        Cd616   2.063       .  S
O94        Zn299   1.964       .  S
O94        Cd197   2.029   1_554  S
O94        Cd725   2.009   1_445  S
Cd95         O97   2.088       .  S
Cd95        O191   2.063   1_554  S
Cd95        O724   2.009       .  S
O96         C103   1.277       .  A
O96        Cd512   2.099       .  S
O97         C504   1.277       .  A
C98         O102   1.273   1_545  A
C98         C269   1.467       .  S
C101        O297   1.278       .  A
O102       Zn404   2.019   1_565  S
C104        O105   1.277       .  A
O105       Cd722   2.097       .  S
O106        C122   1.270       .  A
O106       Zn112   2.026       .  S
C107        O123   1.274       .  A
C107        O120   1.269       .  A
C107        C133   1.461       .  S
O108        C121   1.277       .  A
O108       Cd115   2.104       .  S
O109        C127   1.273       .  A
O109       Cd118   2.041       .  S
O110        C124   1.268       .  A
O110       Cd114   2.067       .  S
O111        C122   1.273       .  A
O111       Cd114   2.030       .  S
Zn112       O123   1.995       .  S
Zn112       O125   1.988       .  S
Zn112       O117   1.924       .  S
O113        C124   1.274       .  A
O113       Cd118   2.044       .  S
Cd114       O116   2.040       .  S
Cd114       O117   1.973       .  S
Cd115       O119   2.107       .  S
Cd115       O128   2.104       .  S
Cd115       O117   2.044       .  S
O116        C126   1.273       .  A
O117       Cd118   1.974       .  S
Cd118       O120   2.064       .  S
O119        C126   1.277       .  A
C121        O125   1.273       .  A
C121        C186   1.463       .  S
C122        C178   1.460       .  S
C124        C166   1.461       .  S
C126        C172   1.462       .  S
C127        O128   1.277       .  A
C127        C162   1.461       .  S
C129        C208   1.466       .  S
C129        N550   1.366       .  A
C129        N134   1.366       .  A
N130        C549   1.366   1_455  A
N130        C131   1.360       .  A
C131        C151   1.460       .  S
C131        N552   1.344   1_455  A
N132        C551   1.344       .  A
N132        C133   1.344       .  A
C133        N134   1.361       .  A
O135        C151   1.274       .  A
O135       Zn141   1.994       .  S
C136        O152   1.270       .  A
C136        O149   1.273       .  A
C136        C168   1.462       .  S
O137        C150   1.277       .  A
O137       Cd144   2.104       .  S
O138        C156   1.273       .  A
O138       Cd147   2.038       .  S
O139        C153   1.274       .  A
O139       Cd143   2.044       .  S
O140        C151   1.269       .  A
O140       Cd143   2.063       .  S
Zn141       O152   2.028       .  S
Zn141       O154   1.987       .  S
Zn141       O146   1.925       .  S
O142        C153   1.268       .  A
O142       Cd147   2.066       .  S
Cd143       O145   2.042       .  S
Cd143       O146   1.975       .  S
Cd144       O148   2.106       .  S
Cd144       O157   2.105       .  S
Cd144       O146   2.043       .  S
O145        C155   1.273       .  A
O146       Cd147   1.973       .  S
Cd147       O149   2.032       .  S
O148        C155   1.277       .  A
C150        O154   1.273       .  A
C150        C184   1.462       .  S
C153        C180   1.461       .  S
C155        C174   1.462       .  S
C156        O157   1.277       .  A
C156        C160   1.461       .  S
C158        C206   1.483       .  S
C158        N159   1.370       .  A
C158        N373   1.370       .  A
N159        C160   1.362       .  A
C160        N161   1.345       .  A
N161        C372   1.345       .  A
C162        N371   1.345       .  A
C162        N163   1.361       .  A
N163        C368   1.370       .  A
C164        C413   1.467       .  S
C164        N375   1.368       .  A
C164        N169   1.368       .  A
N165        C374   1.368       .  A
N165        C166   1.360       .  A
C166        N377   1.341       .  A
N167        C376   1.341       .  A
N167        C168   1.342       .  A
C168        N169   1.361       .  A
C170        C204   1.485       .  S
C170        N171   1.371       .  A
C170        N175   1.370       .  A
N171        C172   1.363       .  A
C172        N173   1.346       .  A
N173        C174   1.345       .  A
C174        N175   1.361       .  A
C176        C209   1.465       .  S
C176        N177   1.368       .  A
C176        N181   1.368       .  A
N177        C178   1.360       .  A
C178        N179   1.342       .  A
N179        C180   1.341       .  A
C180        N181   1.360       .  A
C182        C609   1.486       .  S
C182        N603   1.370       .  A
C182        N187   1.370       .  A
N183        C602   1.370       .  A
N183        C184   1.363       .  A
C184        N605   1.346       .  A
N185        C604   1.346       .  A
N185        C186   1.345       .  A
C186        N187   1.362       .  A
O188        C204   1.280       .  A
O188       Zn404   2.061       .  S
C189        O205   1.280   1_655  A
C189        O622   1.277       .  A
C189        C602   1.486   1_655  S
O190        C203   1.277       .  A
O190       Cd197   2.094       .  S
O191        C209   1.272       .  A
O192        C416   1.278   1_545  A
O192       Cd616   2.091       .  S
O193        C204   1.277       .  A
O193       Cd196   2.086       .  S
Zn194       O398   2.061       .  S
Zn194       O205   2.060       .  S
Zn194       O312   2.019       .  S
Zn194       O409   1.964       .  S
O195        C206   1.278       .  A
O195       Cd200   2.095       .  S
Cd196       O612   2.091   1_455  S
Cd196       O513   2.063   1_455  S
Cd196       O199   2.009       .  S
Cd197       O621   2.099       .  S
Cd197       O840   2.097   1_445  S
O198        C208   1.272       .  A
O198       Cd511   2.063   1_556  S
O199       Zn404   1.964       .  S
O199       Cd830   2.009   1_445  S
Cd200       O202   2.088       .  S
Cd200       O829   2.009       .  S
O201        C208   1.277       .  A
O201       Cd617   2.099       .  S
O202        C609   1.277       .  A
C203        O207   1.273   1_545  A
C203        C374   1.467       .  S
C206        O402   1.278       .  A
O207       Zn299   2.019   1_566  S
C209        O210   1.277       .  A
O210       Cd827   2.097       .  S
O211        C227   1.270       .  A
O211       Zn217   2.026       .  S
C212        O228   1.274       .  A
C212        O225   1.269       .  A
C212        C238   1.461       .  S
O213        C226   1.277       .  A
O213       Cd220   2.104       .  S
O214        C232   1.273       .  A
O214       Cd223   2.041       .  S
O215        C229   1.268       .  A
O215       Cd219   2.067       .  S
O216        C227   1.273       .  A
O216       Cd219   2.030       .  S
Zn217       O228   1.995       .  S
Zn217       O230   1.988       .  S
Zn217       O222   1.924       .  S
O218        C229   1.274       .  A
O218       Cd223   2.044       .  S
Cd219       O221   2.040       .  S
Cd219       O222   1.973       .  S
Cd220       O224   2.107       .  S
Cd220       O233   2.104       .  S
Cd220       O222   2.044       .  S
O221        C231   1.273       .  A
O222       Cd223   1.974       .  S
Cd223       O225   2.064       .  S
O224        C231   1.277       .  A
C226        O230   1.273       .  A
C226        C291   1.463       .  S
C227        C283   1.460       .  S
C229        C271   1.461       .  S
C231        C277   1.462       .  S
C232        O233   1.277       .  A
C232        C267   1.461       .  S
C234        C313   1.466       .  S
C234        N655   1.366       .  A
C234        N239   1.366       .  A
N235        C654   1.366   1_455  A
N235        C236   1.360       .  A
C236        C256   1.460       .  S
C236        N657   1.344   1_455  A
N237        C656   1.344       .  A
N237        C238   1.344       .  A
C238        N239   1.361       .  A
O240        C256   1.274       .  A
O240       Zn246   1.994       .  S
C241        O257   1.270       .  A
C241        O254   1.273       .  A
C241        C273   1.462       .  S
O242        C255   1.277       .  A
O242       Cd249   2.104       .  S
O243        C261   1.273       .  A
O243       Cd252   2.038       .  S
O244        C258   1.274       .  A
O244       Cd248   2.044       .  S
O245        C256   1.269       .  A
O245       Cd248   2.063       .  S
Zn246       O257   2.028       .  S
Zn246       O259   1.987       .  S
Zn246       O251   1.925       .  S
O247        C258   1.268       .  A
O247       Cd252   2.066       .  S
Cd248       O250   2.042       .  S
Cd248       O251   1.975       .  S
Cd249       O253   2.106       .  S
Cd249       O262   2.105       .  S
Cd249       O251   2.043       .  S
O250        C260   1.273       .  A
O251       Cd252   1.973       .  S
Cd252       O254   2.032       .  S
O253        C260   1.277       .  A
C255        O259   1.273       .  A
C255        C289   1.462       .  S
C258        C285   1.461       .  S
C260        C279   1.462       .  S
C261        O262   1.277       .  A
C261        C265   1.461       .  S
C263        C311   1.483   1_545  S
C263        N264   1.370   1_545  A
N264        C265   1.362       .  A
C265        N266   1.345   1_565  A
C267        N268   1.361       .  A
C269        N274   1.368   1_545  A
N270        C271   1.360       .  A
N272        C273   1.342   1_545  A
C273        N274   1.361       .  A
C275        C309   1.485       .  S
C275        N276   1.371       .  A
C275        N280   1.370       .  A
N276        C277   1.363       .  A
C277        N278   1.346       .  A
N278        C279   1.345       .  A
C279        N280   1.361       .  A
C281        C314   1.465       .  S
C281        N282   1.368       .  A
C281        N286   1.368       .  A
N282        C283   1.360       .  A
C283        N284   1.342       .  A
N284        C285   1.341       .  A
C285        N286   1.360       .  A
C287        C714   1.486       .  S
C287        N708   1.370       .  A
C287        N292   1.370       .  A
N288        C707   1.370       .  A
N288        C289   1.363       .  A
C289        N710   1.346       .  A
N290        C709   1.346       .  A
N290        C291   1.345       .  A
C291        N292   1.362       .  A
O293        C309   1.280       .  A
C294        O310   1.280   1_655  A
C294        O727   1.277       .  A
C294        C707   1.486   1_655  S
O295        C308   1.277       .  A
O295       Cd302   2.094       .  S
O296        C314   1.272       .  A
O296       Cd410   2.063       .  S
O297       Cd721   2.091       .  S
O298        C309   1.277       .  A
O298       Cd301   2.086       .  S
Zn299       O310   2.060   1_545  S
O300        C311   1.278       .  A
O300       Cd305   2.095       .  S
Cd301       O717   2.091   1_455  S
Cd301       O828   2.063   1_454  S
Cd301       O304   2.009       .  S
Cd302       O726   2.099       .  S
Cd302       O525   2.097   1_455  S
Cd302       O409   2.029       .  S
O303        C313   1.272       .  A
O303       Cd826   2.063       .  S
O304       Cd407   2.029   1_554  S
O304       Cd515   2.009   1_455  S
Cd305       O401   2.063   1_554  S
Cd305       O307   2.088       .  S
Cd305       O514   2.009   1_565  S
O306        C313   1.277       .  A
O306       Cd722   2.099       .  S
O307        C714   1.277       .  A
C308        O312   1.273       .  A
C314        O315   1.277       .  A
O315       Cd512   2.097   1_565  S
O316        C332   1.270       .  A
O316       Zn322   2.026       .  S
C317        O333   1.274       .  A
C317        O330   1.269       .  A
C317        C343   1.461       .  S
O318        C331   1.277       .  A
O318       Cd325   2.104       .  S
O319        C337   1.273       .  A
O319       Cd328   2.041       .  S
O320        C334   1.268       .  A
O320       Cd324   2.067       .  S
O321        C332   1.273       .  A
O321       Cd324   2.030       .  S
Zn322       O333   1.995       .  S
Zn322       O335   1.988       .  S
Zn322       O327   1.924       .  S
O323        C334   1.274       .  A
O323       Cd328   2.044       .  S
Cd324       O326   2.040       .  S
Cd324       O327   1.973       .  S
Cd325       O329   2.107       .  S
Cd325       O338   2.104       .  S
Cd325       O327   2.044       .  S
O326        C336   1.273       .  A
O327       Cd328   1.974       .  S
Cd328       O330   2.064       .  S
O329        C336   1.277       .  A
C331        O335   1.273       .  A
C331        C396   1.463       .  S
C332        C388   1.460       .  S
C334        C376   1.461       .  S
C336        C382   1.462       .  S
C337        O338   1.277       .  A
C337        C372   1.461       .  S
C339        C418   1.466       .  S
C339        N760   1.366       .  A
C339        N344   1.366       .  A
N340        C759   1.366   1_455  A
N340        C341   1.360       .  A
C341        C361   1.460       .  S
C341        N762   1.344   1_455  A
N342        C761   1.344       .  A
N342        C343   1.344       .  A
C343        N344   1.361       .  A
O345        C361   1.274       .  A
O345       Zn351   1.994       .  S
C346        O362   1.270       .  A
C346        O359   1.273       .  A
C346        C378   1.462       .  S
O347        C360   1.277       .  A
O347       Cd354   2.104       .  S
O348        C366   1.273       .  A
O348       Cd357   2.038       .  S
O349        C363   1.274       .  A
O349       Cd353   2.044       .  S
O350        C361   1.269       .  A
O350       Cd353   2.063       .  S
Zn351       O362   2.028       .  S
Zn351       O364   1.987       .  S
Zn351       O356   1.925       .  S
O352        C363   1.268       .  A
O352       Cd357   2.066       .  S
Cd353       O355   2.042       .  S
Cd353       O356   1.975       .  S
Cd354       O358   2.106       .  S
Cd354       O367   2.105       .  S
Cd354       O356   2.043       .  S
O355        C365   1.273       .  A
O356       Cd357   1.973       .  S
Cd357       O359   2.032       .  S
O358        C365   1.277       .  A
C360        O364   1.273       .  A
C360        C394   1.462       .  S
C363        C390   1.461       .  S
C365        C384   1.462       .  S
C366        O367   1.277       .  A
C366        C370   1.461       .  S
C368        C416   1.483   1_545  S
C368        N369   1.370   1_545  A
N369        C370   1.362       .  A
C370        N371   1.345   1_565  A
C372        N373   1.361       .  A
C374        N379   1.368   1_545  A
N375        C376   1.360       .  A
N377        C378   1.342   1_545  A
C378        N379   1.361       .  A
C380        C414   1.485       .  S
C380        N381   1.371       .  A
C380        N385   1.370       .  A
N381        C382   1.363       .  A
C382        N383   1.346       .  A
N383        C384   1.345       .  A
C384        N385   1.361       .  A
C386        C419   1.465       .  S
C386        N387   1.368       .  A
C386        N391   1.368       .  A
N387        C388   1.360       .  A
C388        N389   1.342       .  A
N389        C390   1.341       .  A
C390        N391   1.360       .  A
C392        C819   1.486       .  S
C392        N813   1.370       .  A
C392        N397   1.370       .  A
N393        C812   1.370       .  A
N393        C394   1.363       .  A
C394        N815   1.346       .  A
N395        C814   1.346       .  A
N395        C396   1.345       .  A
C396        N397   1.362       .  A
O398        C414   1.280       .  A
C399        O415   1.280   1_655  A
C399        O832   1.277       .  A
C399        C812   1.486   1_655  S
O400        C413   1.277       .  A
O400       Cd407   2.094       .  S
O401        C419   1.272       .  A
O402       Cd826   2.091       .  S
O403        C414   1.277       .  A
O403       Cd406   2.086       .  S
Zn404       O415   2.060   1_545  S
O405        C416   1.278       .  A
O405       Cd410   2.095       .  S
Cd406       O822   2.091   1_455  S
Cd406       O723   2.063   1_455  S
Cd406       O409   2.009       .  S
Cd407       O831   2.099       .  S
Cd407       O630   2.097   1_455  S
O408        C418   1.272       .  A
O408       Cd721   2.063   1_556  S
O409       Cd620   2.009   1_455  S
Cd410       O412   2.088       .  S
Cd410       O619   2.009   1_565  S
O411        C418   1.277       .  A
O411       Cd827   2.099       .  S
O412        C819   1.277       .  A
C413        O417   1.273       .  A
C419        O420   1.277       .  A
O420       Cd617   2.097   1_565  S
O421        C437   1.270       .  A
O421       Zn427   2.026       .  S
C422        O438   1.274       .  A
C422        O435   1.269       .  A
C422        C448   1.461       .  S
O423        C436   1.277       .  A
O423       Cd430   2.104       .  S
O424        C442   1.273       .  A
O424       Cd433   2.041       .  S
O425        C439   1.268       .  A
O425       Cd429   2.067       .  S
O426        C437   1.273       .  A
O426       Cd429   2.030       .  S
Zn427       O438   1.995       .  S
Zn427       O440   1.988       .  S
Zn427       O432   1.924       .  S
O428        C439   1.274       .  A
O428       Cd433   2.044       .  S
Cd429       O431   2.040       .  S
Cd429       O432   1.973       .  S
Cd430       O434   2.107       .  S
Cd430       O443   2.104       .  S
Cd430       O432   2.044       .  S
O431        C441   1.273       .  A
O432       Cd433   1.974       .  S
Cd433       O435   2.064       .  S
O434        C441   1.277       .  A
C436        O440   1.273       .  A
C436        C501   1.463       .  S
C437        C493   1.460       .  S
C439        C481   1.461       .  S
C441        C487   1.462       .  S
C442        O443   1.277       .  A
C442        C477   1.461       .  S
C444        C523   1.466       .  S
C444        N449   1.366       .  A
N445        C446   1.360       .  A
C446        C466   1.460       .  S
N447        C448   1.344       .  A
C448        N449   1.361       .  A
O450        C466   1.274       .  A
O450       Zn456   1.994       .  S
C451        O467   1.270       .  A
C451        O464   1.273       .  A
C451        C483   1.462       .  S
O452        C465   1.277       .  A
O452       Cd459   2.104       .  S
O453        C471   1.273       .  A
O453       Cd462   2.038       .  S
O454        C468   1.274       .  A
O454       Cd458   2.044       .  S
O455        C466   1.269       .  A
O455       Cd458   2.063       .  S
Zn456       O467   2.028       .  S
Zn456       O469   1.987       .  S
Zn456       O461   1.925       .  S
O457        C468   1.268       .  A
O457       Cd462   2.066       .  S
Cd458       O460   2.042       .  S
Cd458       O461   1.975       .  S
Cd459       O463   2.106       .  S
Cd459       O472   2.105       .  S
Cd459       O461   2.043       .  S
O460        C470   1.273       .  A
O461       Cd462   1.973       .  S
Cd462       O464   2.032       .  S
O463        C470   1.277       .  A
C465        O469   1.273       .  A
C465        C499   1.462       .  S
C468        C495   1.461       .  S
C470        C489   1.462       .  S
C471        O472   1.277       .  A
C471        C475   1.461       .  S
C473        C521   1.483       .  S
C473        N474   1.370       .  A
C473        N688   1.370       .  A
N474        C475   1.362       .  A
C475        N476   1.345       .  A
N476        C687   1.345       .  A
C477        N686   1.345       .  A
C477        N478   1.361       .  A
N478        C683   1.370       .  A
C479        C728   1.467       .  S
C479        N690   1.368       .  A
C479        N484   1.368       .  A
N480        C689   1.368       .  A
N480        C481   1.360       .  A
C481        N692   1.341       .  A
N482        C691   1.341       .  A
N482        C483   1.342       .  A
C483        N484   1.361       .  A
C485        C519   1.485       .  S
C485        N486   1.371       .  A
C485        N490   1.370       .  A
N486        C487   1.363       .  A
C487        N488   1.346       .  A
N488        C489   1.345       .  A
C489        N490   1.361       .  A
C491        C524   1.465       .  S
C491        N492   1.368       .  A
C491        N496   1.368       .  A
N492        C493   1.360       .  A
C493        N494   1.342       .  A
N494        C495   1.341       .  A
C495        N496   1.360       .  A
C497        N502   1.370   1_455  A
N498        C499   1.363       .  A
N500        C501   1.345   1_455  A
C501        N502   1.362       .  A
O503        C519   1.280       .  A
O503       Zn719   2.061       .  S
C504        O520   1.280       .  A
O505        C518   1.277       .  A
O505       Cd512   2.094       .  S
O506        C524   1.272       .  A
O506       Cd620   2.063       .  S
O507        C731   1.278   1_545  A
O508        C519   1.277       .  A
O508       Cd511   2.086       .  S
Zn509       O713   2.061       .  S
Zn509       O520   2.060       .  S
Zn509       O837   2.019   1_554  S
Zn509       O724   1.964       .  S
O510        C521   1.278       .  A
O510       Cd515   2.095       .  S
Cd511       O514   2.009       .  S
Cd512       O619   2.029       .  S
O513        C523   1.272       .  A
O514       Zn719   1.964       .  S
O514       Cd617   2.029   1_554  S
Cd515       O611   2.063   1_554  S
Cd515       O517   2.088       .  S
O516        C523   1.277   1_455  A
C518        O522   1.273   1_545  A
C518        C689   1.467       .  S
C521        O717   1.278       .  A
O522       Zn824   2.019   1_565  S
C524        O525   1.277       .  A
O526        C542   1.270       .  A
O526       Zn532   2.026       .  S
C527        O543   1.274       .  A
C527        O540   1.269       .  A
C527        C553   1.461       .  S
O528        C541   1.277       .  A
O528       Cd535   2.104       .  S
O529        C547   1.273       .  A
O529       Cd538   2.041       .  S
O530        C544   1.268       .  A
O530       Cd534   2.067       .  S
O531        C542   1.273       .  A
O531       Cd534   2.030       .  S
Zn532       O543   1.995       .  S
Zn532       O545   1.988       .  S
Zn532       O537   1.924       .  S
O533        C544   1.274       .  A
O533       Cd538   2.044       .  S
Cd534       O536   2.040       .  S
Cd534       O537   1.973       .  S
Cd535       O539   2.107       .  S
Cd535       O548   2.104       .  S
Cd535       O537   2.044       .  S
O536        C546   1.273       .  A
O537       Cd538   1.974       .  S
Cd538       O540   2.064       .  S
O539        C546   1.277       .  A
C541        O545   1.273       .  A
C541        C606   1.463       .  S
C542        C598   1.460       .  S
C544        C586   1.461       .  S
C546        C592   1.462       .  S
C547        O548   1.277       .  A
C547        C582   1.461       .  S
C549        C628   1.466       .  S
C549        N554   1.366       .  A
N550        C551   1.360       .  A
C551        C571   1.460       .  S
N552        C553   1.344       .  A
C553        N554   1.361       .  A
O555        C571   1.274       .  A
O555       Zn561   1.994       .  S
C556        O572   1.270       .  A
C556        O569   1.273       .  A
C556        C588   1.462       .  S
O557        C570   1.277       .  A
O557       Cd564   2.104       .  S
O558        C576   1.273       .  A
O558       Cd567   2.038       .  S
O559        C573   1.274       .  A
O559       Cd563   2.044       .  S
O560        C571   1.269       .  A
O560       Cd563   2.063       .  S
Zn561       O572   2.028       .  S
Zn561       O574   1.987       .  S
Zn561       O566   1.925       .  S
O562        C573   1.268       .  A
O562       Cd567   2.066       .  S
Cd563       O565   2.042       .  S
Cd563       O566   1.975       .  S
Cd564       O568   2.106       .  S
Cd564       O577   2.105       .  S
Cd564       O566   2.043       .  S
O565        C575   1.273       .  A
O566       Cd567   1.973       .  S
Cd567       O569   2.032       .  S
O568        C575   1.277       .  A
C570        O574   1.273       .  A
C570        C604   1.462       .  S
C573        C600   1.461       .  S
C575        C594   1.462       .  S
C576        O577   1.277       .  A
C576        C580   1.461       .  S
C578        C626   1.483       .  S
C578        N579   1.370       .  A
C578        N793   1.370       .  A
N579        C580   1.362       .  A
C580        N581   1.345       .  A
N581        C792   1.345       .  A
C582        N791   1.345       .  A
C582        N583   1.361       .  A
N583        C788   1.370       .  A
C584        C833   1.467       .  S
C584        N795   1.368       .  A
C584        N589   1.368       .  A
N585        C794   1.368       .  A
N585        C586   1.360       .  A
C586        N797   1.341       .  A
N587        C796   1.341       .  A
N587        C588   1.342       .  A
C588        N589   1.361       .  A
C590        C624   1.485       .  S
C590        N591   1.371       .  A
C590        N595   1.370       .  A
N591        C592   1.363       .  A
C592        N593   1.346       .  A
N593        C594   1.345       .  A
C594        N595   1.361       .  A
C596        C629   1.465       .  S
C596        N597   1.368       .  A
C596        N601   1.368       .  A
N597        C598   1.360       .  A
C598        N599   1.342       .  A
N599        C600   1.341       .  A
C600        N601   1.360       .  A
C602        N607   1.370   1_455  A
N603        C604   1.363       .  A
N605        C606   1.345   1_455  A
C606        N607   1.362       .  A
O608        C624   1.280       .  A
O608       Zn824   2.061       .  S
C609        O625   1.280       .  A
O610        C623   1.277       .  A
O610       Cd617   2.094       .  S
O611        C629   1.272       .  A
O612        C836   1.278   1_545  A
O613        C624   1.277       .  A
O613       Cd616   2.086       .  S
Zn614       O818   2.061       .  S
Zn614       O625   2.060       .  S
Zn614       O732   2.019       .  S
Zn614       O829   1.964       .  S
O615        C626   1.278       .  A
O615       Cd620   2.095       .  S
Cd616       O619   2.009       .  S
O618        C628   1.272       .  A
O619       Zn824   1.964       .  S
Cd620       O622   2.088       .  S
O621        C628   1.277   1_455  A
C623        O627   1.273   1_545  A
C623        C794   1.467       .  S
C626        O822   1.278       .  A
O627       Zn719   2.019   1_566  S
C629        O630   1.277       .  A
O631        C647   1.270       .  A
O631       Zn637   2.026       .  S
C632        O648   1.274       .  A
C632        O645   1.269       .  A
C632        C658   1.461       .  S
O633        C646   1.277       .  A
O633       Cd640   2.104       .  S
O634        C652   1.273       .  A
O634       Cd643   2.041       .  S
O635        C649   1.268       .  A
O635       Cd639   2.067       .  S
O636        C647   1.273       .  A
O636       Cd639   2.030       .  S
Zn637       O648   1.995       .  S
Zn637       O650   1.988       .  S
Zn637       O642   1.924       .  S
O638        C649   1.274       .  A
O638       Cd643   2.044       .  S
Cd639       O641   2.040       .  S
Cd639       O642   1.973       .  S
Cd640       O644   2.107       .  S
Cd640       O653   2.104       .  S
Cd640       O642   2.044       .  S
O641        C651   1.273       .  A
O642       Cd643   1.974       .  S
Cd643       O645   2.064       .  S
O644        C651   1.277       .  A
C646        O650   1.273       .  A
C646        C711   1.463       .  S
C647        C703   1.460       .  S
C649        C691   1.461       .  S
C651        C697   1.462       .  S
C652        O653   1.277       .  A
C652        C687   1.461       .  S
C654        C733   1.466       .  S
C654        N659   1.366       .  A
N655        C656   1.360       .  A
C656        C676   1.460       .  S
N657        C658   1.344       .  A
C658        N659   1.361       .  A
O660        C676   1.274       .  A
O660       Zn666   1.994       .  S
C661        O677   1.270       .  A
C661        O674   1.273       .  A
C661        C693   1.462       .  S
O662        C675   1.277       .  A
O662       Cd669   2.104       .  S
O663        C681   1.273       .  A
O663       Cd672   2.038       .  S
O664        C678   1.274       .  A
O664       Cd668   2.044       .  S
O665        C676   1.269       .  A
O665       Cd668   2.063       .  S
Zn666       O677   2.028       .  S
Zn666       O679   1.987       .  S
Zn666       O671   1.925       .  S
O667        C678   1.268       .  A
O667       Cd672   2.066       .  S
Cd668       O670   2.042       .  S
Cd668       O671   1.975       .  S
Cd669       O673   2.106       .  S
Cd669       O682   2.105       .  S
Cd669       O671   2.043       .  S
O670        C680   1.273       .  A
O671       Cd672   1.973       .  S
Cd672       O674   2.032       .  S
O673        C680   1.277       .  A
C675        O679   1.273       .  A
C675        C709   1.462       .  S
C678        C705   1.461       .  S
C680        C699   1.462       .  S
C681        O682   1.277       .  A
C681        C685   1.461       .  S
C683        C731   1.483   1_545  S
C683        N684   1.370   1_545  A
N684        C685   1.362       .  A
C685        N686   1.345   1_565  A
C687        N688   1.361       .  A
C689        N694   1.368   1_545  A
N690        C691   1.360       .  A
N692        C693   1.342   1_545  A
C693        N694   1.361       .  A
C695        C729   1.485       .  S
C695        N696   1.371       .  A
C695        N700   1.370       .  A
N696        C697   1.363       .  A
C697        N698   1.346       .  A
N698        C699   1.345       .  A
C699        N700   1.361       .  A
C701        C734   1.465       .  S
C701        N702   1.368       .  A
C701        N706   1.368       .  A
N702        C703   1.360       .  A
C703        N704   1.342       .  A
N704        C705   1.341       .  A
C705        N706   1.360       .  A
C707        N712   1.370   1_455  A
N708        C709   1.363       .  A
N710        C711   1.345   1_455  A
C711        N712   1.362       .  A
O713        C729   1.280       .  A
C714        O730   1.280       .  A
O715        C728   1.277       .  A
O715       Cd722   2.094       .  S
O716        C734   1.272       .  A
O716       Cd830   2.063       .  S
O718        C729   1.277       .  A
O718       Cd721   2.086       .  S
Zn719       O730   2.060   1_545  S
O720        C731   1.278       .  A
O720       Cd725   2.095       .  S
Cd721       O724   2.009       .  S
Cd722       O829   2.029       .  S
O723        C733   1.272       .  A
O724       Cd827   2.029   1_554  S
Cd725       O821   2.063   1_554  S
Cd725       O727   2.088       .  S
O726        C733   1.277   1_455  A
C728        O732   1.273       .  A
C734        O735   1.277       .  A
O736        C752   1.270       .  A
O736       Zn742   2.026       .  S
C737        O753   1.274       .  A
C737        O750   1.269       .  A
C737        C763   1.461       .  S
O738        C751   1.277       .  A
O738       Cd745   2.104       .  S
O739        C757   1.273       .  A
O739       Cd748   2.041       .  S
O740        C754   1.268       .  A
O740       Cd744   2.067       .  S
O741        C752   1.273       .  A
O741       Cd744   2.030       .  S
Zn742       O753   1.995       .  S
Zn742       O755   1.988       .  S
Zn742       O747   1.924       .  S
O743        C754   1.274       .  A
O743       Cd748   2.044       .  S
Cd744       O746   2.040       .  S
Cd744       O747   1.973       .  S
Cd745       O749   2.107       .  S
Cd745       O758   2.104       .  S
Cd745       O747   2.044       .  S
O746        C756   1.273       .  A
O747       Cd748   1.974       .  S
Cd748       O750   2.064       .  S
O749        C756   1.277       .  A
C751        O755   1.273       .  A
C751        C816   1.463       .  S
C752        C808   1.460       .  S
C754        C796   1.461       .  S
C756        C802   1.462       .  S
C757        O758   1.277       .  A
C757        C792   1.461       .  S
C759        C838   1.466       .  S
C759        N764   1.366       .  A
N760        C761   1.360       .  A
C761        C781   1.460       .  S
N762        C763   1.344       .  A
C763        N764   1.361       .  A
O765        C781   1.274       .  A
O765       Zn771   1.994       .  S
C766        O782   1.270       .  A
C766        O779   1.273       .  A
C766        C798   1.462       .  S
O767        C780   1.277       .  A
O767       Cd774   2.104       .  S
O768        C786   1.273       .  A
O768       Cd777   2.038       .  S
O769        C783   1.274       .  A
O769       Cd773   2.044       .  S
O770        C781   1.269       .  A
O770       Cd773   2.063       .  S
Zn771       O782   2.028       .  S
Zn771       O784   1.987       .  S
Zn771       O776   1.925       .  S
O772        C783   1.268       .  A
O772       Cd777   2.066       .  S
Cd773       O775   2.042       .  S
Cd773       O776   1.975       .  S
Cd774       O778   2.106       .  S
Cd774       O787   2.105       .  S
Cd774       O776   2.043       .  S
O775        C785   1.273       .  A
O776       Cd777   1.973       .  S
Cd777       O779   2.032       .  S
O778        C785   1.277       .  A
C780        O784   1.273       .  A
C780        C814   1.462       .  S
C783        C810   1.461       .  S
C785        C804   1.462       .  S
C786        O787   1.277       .  A
C786        C790   1.461       .  S
C788        C836   1.483   1_545  S
C788        N789   1.370   1_545  A
N789        C790   1.362       .  A
C790        N791   1.345   1_565  A
C792        N793   1.361       .  A
C794        N799   1.368   1_545  A
N795        C796   1.360       .  A
N797        C798   1.342   1_545  A
C798        N799   1.361       .  A
C800        C834   1.485       .  S
C800        N801   1.371       .  A
C800        N805   1.370       .  A
N801        C802   1.363       .  A
C802        N803   1.346       .  A
N803        C804   1.345       .  A
C804        N805   1.361       .  A
C806        C839   1.465       .  S
C806        N807   1.368       .  A
C806        N811   1.368       .  A
N807        C808   1.360       .  A
C808        N809   1.342       .  A
N809        C810   1.341       .  A
C810        N811   1.360       .  A
C812        N817   1.370   1_455  A
N813        C814   1.363       .  A
N815        C816   1.345   1_455  A
C816        N817   1.362       .  A
O818        C834   1.280       .  A
C819        O835   1.280       .  A
O820        C833   1.277       .  A
O820       Cd827   2.094       .  S
O821        C839   1.272       .  A
O823        C834   1.277       .  A
O823       Cd826   2.086       .  S
Zn824       O835   2.060   1_545  S
O825        C836   1.278       .  A
O825       Cd830   2.095       .  S
Cd826       O829   2.009       .  S
O828        C838   1.272       .  A
Cd830       O832   2.088       .  S
O831        C838   1.277   1_455  A
C833        O837   1.273       .  A
C839        O840   1.277       .  A
