geometry optimzed in LAMMPS
_audit_creation_date              2020-11-30 
_audit_creation_method            'lammps2cif' 
_symmetry_space_group_name_H-M    'P1' 
_symmetry_Int_Tables_number       1 
_symmetry_cell_setting            triclinic 
loop_ 
_symmetry_equiv_pos_as_xyz 
  x,y,z 
_cell_length_a                    42.26926081 
_cell_length_b                    42.24786330916329 
_cell_length_c                    42.56381999673756 
_cell_angle_alpha                 89.74206816099768 
_cell_angle_beta                  90.19222253704297 
_cell_angle_gamma                 119.93730057188488 
loop_ 
_atom_site_label 
_atom_site_type_symbol 
_atom_site_fract_x 
_atom_site_fract_y 
_atom_site_fract_z 
_atom_site_charge 
C1          C  0.26919121  0.28260746  0.99853383     0.04000
C2          C  0.28617391  0.29732614  0.02760584    -0.12200
C3          C  0.31625494  0.33279655  0.02927832     0.01500
C4          C  0.32960212  0.35371369  0.50183669    -0.10700
C5          C  0.31424377  0.33894482  0.47259291     0.04000
C6          C  0.28418934  0.30337187  0.47098268    -0.10100
H7          H  0.27604516  0.28144415  0.04899299     0.09600
H8          H  0.35310791  0.38098971  0.50314308     0.07100
H9          H  0.27202047  0.29242395  0.44830708     0.06900
C10         C  0.75196451  0.73880236  0.99797665     0.04000
C11         C  0.73410629  0.72242234  0.02648932    -0.12200
C12         C  0.70463414  0.68637585  0.02717078     0.01500
C13         C  0.69273804  0.66655963  0.99913659    -0.10700
C14         C  0.70866794  0.68275463  0.47036202     0.04000
C15         C  0.73818319  0.71875791  0.46987307    -0.10100
H16         H  0.74279260  0.73746359  0.04828252     0.09600
H17         H  0.66943354  0.63911109  0.99947829     0.07100
H18         H  0.75055553  0.73069159  0.44748935     0.06900
O19         O  0.53329481  0.56036441  0.28014785    -0.70900
O20         O  0.46266899  0.50134815  0.21929966    -0.71100
O21         O  0.46464968  0.50297874  0.28279037    -0.71000
O22         O  0.53106180  0.55819853  0.21706244    -0.71000
O23         O  0.55269993  0.52112222  0.21815144    -0.71000
O24         O  0.48507830  0.46491811  0.28166482    -0.71000
O25         O  0.48458332  0.46450397  0.21886836    -0.70900
O26         O  0.55355570  0.52217008  0.28179186    -0.71100
V27         V  0.49828823  0.52998714  0.24989930     1.35200
V28         V  0.51866114  0.49401272  0.25019817     1.35200
C29         C  0.55532145  0.55131538  0.29146855     0.78300
C30         C  0.46203134  0.47329851  0.20827753     0.78400
C31         C  0.46324963  0.47407080  0.29295226     0.78200
C32         C  0.55278987  0.54856432  0.20614101     0.78200
C33         C  0.74009630  0.00653840  0.99939244     0.04000
C34         C  0.72391930  0.00518709  0.46998850    -0.12200
C35         C  0.69464901  0.01195802  0.46755742     0.01500
C36         C  0.68116894  0.01972594  0.99469657    -0.10700
C37         C  0.69548989  0.01923197  0.02424469     0.04000
C38         C  0.72483068  0.01262622  0.02650035    -0.10100
H39         H  0.73402931  0.99909990  0.44887516     0.09600
H40         H  0.65804166  0.02410463  0.99299421     0.07100
H41         H  0.73609881  0.01307889  0.04947342     0.06900
C42         C  0.25798709  0.98238351  0.99427282     0.04000
C43         C  0.27438923  0.98129156  0.02295225    -0.12200
C44         C  0.30450383  0.97552973  0.02338823     0.01500
C45         C  0.31823255  0.97092898  0.99483543    -0.10700
C46         C  0.30317103  0.97315162  0.46609405     0.04000
C47         C  0.27308719  0.97870728  0.46598215    -0.10100
H48         H  0.26340277  0.98412548  0.04500187     0.09600
H49         H  0.34213575  0.96775325  0.99483935     0.07100
H50         H  0.26177817  0.98060271  0.44365335     0.06900
O51         O  0.45428763  0.95203285  0.27821571    -0.70900
O52         O  0.52295446  0.96664371  0.21485764    -0.71100
O53         O  0.52397106  0.96744621  0.27759381    -0.71000
O54         O  0.45353020  0.95171129  0.21437217    -0.71000
O55         O  0.47091883  0.00956317  0.21474007    -0.71000
O56         O  0.54229792  0.02550447  0.27664898    -0.71000
O57         O  0.54066187  0.02455469  0.21312453    -0.70900
O58         O  0.47250282  0.01008479  0.27784203    -0.71100
V59         V  0.48888957  0.96057317  0.24623120     1.35200
V60         V  0.50627638  0.01632062  0.24561250     1.35200
C61         C  0.45211181  0.97858568  0.28924106     0.78300
C62         C  0.54344805  0.99783969  0.20320414     0.78400
C63         C  0.54514095  0.99925914  0.28784863     0.78200
C64         C  0.45067347  0.97812284  0.20346827     0.78200
C65         C  0.98917459  0.26940211  0.00608036     0.04000
C66         C  0.99001778  0.28626936  0.47711619    -0.12200
C67         C  0.98677083  0.31787355  0.47609484     0.01500
C68         C  0.98306640  0.33285030  0.00426574    -0.10700
C69         C  0.98408413  0.31753369  0.03323087     0.04000
C70         C  0.98692359  0.28587545  0.03400817    -0.10100
H71         H  0.99220940  0.27443488  0.45530259     0.09600
H72         H  0.98160266  0.35775041  0.00374306     0.07100
H73         H  0.98782126  0.27439949  0.05658266     0.06900
C74         C  0.03426675  0.76078575  0.00166772     0.04000
C75         C  0.03834422  0.74470307  0.02944413    -0.12200
C76         C  0.04664882  0.71627224  0.02795156     0.01500
C77         C  0.05079415  0.70405268  0.49852773    -0.10700
C78         C  0.04598018  0.71898491  0.47064598     0.04000
C79         C  0.03788456  0.74734235  0.47245977    -0.10100
H80         H  0.03471787  0.75390612  0.05214381     0.09600
H81         H  0.05569652  0.68125703  0.49740672     0.07100
H82         H  0.03477387  0.75917754  0.45089234     0.06900
O83         O  0.03188032  0.48825962  0.28372609    -0.70900
O84         O  0.04768575  0.55818280  0.21931834    -0.71100
O85         O  0.05141655  0.55929851  0.28306710    -0.71000
O86         O  0.02866334  0.48728851  0.22072867    -0.71000
O87         O  0.97137884  0.47182012  0.22304292    -0.71000
O88         O  0.99451828  0.54538599  0.28463008    -0.71000
O89         O  0.99040512  0.54260909  0.22188908    -0.70900
O90         O  0.97506378  0.47430488  0.28655104    -0.71100
V91         V  0.03883722  0.52304554  0.25175153     1.35200
V92         V  0.98395305  0.50874034  0.25399557     1.35200
C93         C  0.00074001  0.46963676  0.29628757     0.78300
C94         C  0.02139544  0.56196804  0.20950910     0.78400
C95         C  0.02690145  0.56457291  0.29451082     0.78200
C96         C  0.99631980  0.46744021  0.21114045     0.78200
C97         C  0.04159461  0.04704144  0.00535668     0.03100
C98         C  0.00746770  0.04586701  0.00383322     0.03100
C99         C  0.97469488  0.01165030  0.00435531     0.03100
C100        C  0.97597955  0.97889706  0.00740320     0.03100
C101        C  0.01009444  0.98010780  0.00859067     0.03100
C102        C  0.04300510  0.01420009  0.00667796     0.03100
C103        C  0.00881126  0.83649917  0.99109499     0.16800
C104        C  0.99788786  0.86064109  0.97932006    -0.32200
C105        C  0.00583855  0.89142264  0.99738624     0.21200
C106        C  0.02348156  0.89768600  0.02611685     0.03400
C107        C  0.03418178  0.87333754  0.03801823    -0.22000
C108        C  0.02657098  0.84268058  0.01973473     0.12600
S109        S  0.00336276  0.79880391  0.97184879    -0.05600
C110        C  0.02564505  0.79103228  0.00247608    -0.09100
C111        C  0.03606777  0.81658256  0.52652221    -0.25700
S112        S  0.03159439  0.93725339  0.54389835    -0.02900
C113        C  0.01153085  0.94572025  0.01204302    -0.16300
C114        C  0.99883774  0.91881278  0.98921244    -0.14300
H115        H  0.98444278  0.85601644  0.95675819     0.21000
H116        H  0.04835525  0.87840641  0.56022562     0.17100
H117        H  0.05097582  0.81691636  0.54734303     0.19600
H118        H  0.98612965  0.91981979  0.96740469     0.12900
C119        C  0.05732481  0.62935376  0.36489241     0.16800
C120        C  0.07212003  0.64751250  0.39326462    -0.32200
C121        C  0.05840160  0.66901298  0.40552356     0.21200
C122        C  0.03196442  0.67322191  0.38980155     0.03400
C123        C  0.01732841  0.65526307  0.36127813    -0.22000
C124        C  0.03015897  0.63274902  0.34954448     0.12600
S125        S  0.06876913  0.60028922  0.34719518    -0.05600
C126        C  0.03582958  0.59173671  0.31937048    -0.09100
C127        C  0.01745719  0.61091516  0.32347417    -0.25700
S128        S  0.01764500  0.69894334  0.40945987    -0.02900
C129        C  0.04659807  0.70297597  0.43982945    -0.16300
C130        C  0.06706843  0.68615816  0.43407161    -0.14300
H131        H  0.09253204  0.64403696  0.40577387     0.21000
H132        H  0.99595954  0.65767770  0.34936019     0.17100
H133        H  0.99574920  0.60867094  0.30839722     0.19600
H134        H  0.08640882  0.68539222  0.45034665     0.12900
C135        C  0.05946030  0.66139914  0.09474289     0.16800
C136        C  0.06962739  0.64060713  0.11378237    -0.32200
C137        C  0.04823731  0.62341603  0.14046462     0.21200
C138        C  0.01794673  0.62661110  0.14753198     0.03400
C139        C  0.00811017  0.64770512  0.12876254    -0.22000
C140        C  0.02961991  0.66512502  0.10234135     0.12600
S141        S  0.08049280  0.68281054  0.06054550    -0.05600
C142        C  0.04898663  0.69733609  0.05660930    -0.09100
C143        C  0.02372324  0.68600066  0.08081685    -0.25700
S144        S  0.99431350  0.60239649  0.17976752    -0.02900
C145        C  0.02573457  0.58806211  0.18436829    -0.16300
C146        C  0.05311722  0.60152188  0.16178456    -0.14300
H147        H  0.09286569  0.63759218  0.10783594     0.21000
H148        H  0.98439533  0.65006032  0.13431860     0.17100
H149        H  0.00122568  0.69135119  0.08187060     0.19600
H150        H  0.07473201  0.59488592  0.16055259     0.12900
C151        C  0.01126850  0.13812058  0.48793412     0.16800
C152        C  0.01741431  0.17177885  0.47595769    -0.32200
C153        C  0.00371303  0.19070199  0.49307071     0.21200
C154        C  0.98485585  0.17674174  0.52092511     0.03400
C155        C  0.97871360  0.14311520  0.53291670    -0.22000
C156        C  0.99235046  0.12418185  0.51578655     0.12600
S157        S  0.02559136  0.11096440  0.47069393    -0.05600
C158        C  0.00609399  0.08049320  0.00143544    -0.09100
C159        C  0.98930285  0.09116699  0.02365421    -0.25700
S160        S  0.97074660  0.20389715  0.03829472    -0.02900
C161        C  0.99031368  0.23468174  0.00767757    -0.16300
C162        C  0.00686029  0.22381846  0.48529465    -0.14300
H163        H  0.03223229  0.18273737  0.45422456     0.21000
H164        H  0.96399902  0.13220729  0.05470717     0.17100
H165        H  0.97583476  0.07567238  0.04458519     0.19600
H166        H  0.02096593  0.23947536  0.46462414     0.12900
C167        C  0.96740772  0.40121358  0.14154833     0.16800
C168        C  0.95118276  0.38017021  0.11460342    -0.32200
C169        C  0.97032915  0.36577802  0.09881558     0.21200
C170        C  0.00365898  0.37135704  0.10982408     0.03400
C171        C  0.01991508  0.39251182  0.13655938    -0.22000
C172        C  0.00120900  0.40751910  0.15188000     0.12600
S173        S  0.94954617  0.42240205  0.16347518    -0.05600
C174        C  0.98853026  0.44060662  0.18615639    -0.09100
C175        C  0.01350550  0.43018218  0.17732063    -0.25700
S176        S  0.02269113  0.35176394  0.08757708    -0.02900
C177        C  0.98586427  0.33658585  0.06265247    -0.16300
C178        C  0.96010476  0.34606157  0.07142927    -0.14300
H179        H  0.92516140  0.37577535  0.10601745     0.21000
H180        H  0.04631144  0.39757665  0.14475792     0.17100
H181        H  0.03965197  0.43928723  0.18858165     0.19600
H182        H  0.93550751  0.33916743  0.05832300     0.12900
C183        C  0.00713028  0.37087546  0.39791323     0.16800
C184        C  0.02320653  0.39139886  0.37058392    -0.32200
C185        C  0.00593817  0.40864944  0.35593921     0.21200
C186        C  0.97363465  0.40489133  0.36758579     0.03400
C187        C  0.95769857  0.38458258  0.39498606    -0.22000
C188        C  0.97541490  0.36807302  0.41001622     0.12600
S189        S  0.02441298  0.34886845  0.41978666    -0.05600
C190        C  0.98905385  0.33654528  0.44594128    -0.09100
C191        C  0.96510778  0.34871266  0.43768935    -0.25700
S192        S  0.95691805  0.42787159  0.34651112    -0.02900
C193        C  0.99435659  0.44367315  0.32217159    -0.16300
C194        C  0.01810636  0.43108624  0.32996015    -0.14300
H195        H  0.04839916  0.39430591  0.36144555     0.21000
H196        H  0.93289256  0.38227116  0.40447713     0.17100
H197        H  0.94167255  0.34403722  0.45148785     0.19600
H198        H  0.04307878  0.43823244  0.31746628     0.12900
C199        C  0.13548662  0.01725303  0.01669296     0.16800
C200        C  0.16797495  0.01986620  0.02804715    -0.32200
C201        C  0.18488705  0.00499194  0.00961228     0.21200
C202        C  0.17032398  0.98867481  0.98098901     0.03400
C203        C  0.13792342  0.98614798  0.96956364    -0.22000
C204        C  0.12081494  0.00063753  0.98815425     0.12600
S205        S  0.10989839  0.03203457  0.03618131    -0.05600
C206        C  0.07879871  0.01519616  0.00575108    -0.09100
C207        C  0.08836777  0.99945702  0.48170621    -0.25700
S208        S  0.19484422  0.97227151  0.46224437    -0.02900
C209        C  0.22530730  0.98730832  0.99337524    -0.16300
C210        C  0.21626809  0.00423076  0.01690037    -0.14300
H211        H  0.17928525  0.03246797  0.05046909     0.21000
H212        H  0.12630425  0.97302633  0.44735666     0.17100
H213        H  0.07184722  0.98689292  0.46106218     0.19600
H214        H  0.23196543  0.01585660  0.03809028     0.12900
C215        C  0.35383473  0.98772736  0.38792057     0.16800
C216        C  0.37350769  0.00221156  0.36007827    -0.32200
C217        C  0.39174639  0.98519179  0.34735857     0.21200
C218        C  0.38976256  0.95449766  0.36126946     0.03400
C219        C  0.37030728  0.94015650  0.38929968    -0.22000
C220        C  0.35277565  0.95776089  0.40243917     0.12600
S221        S  0.33111900  0.00543370  0.40760909    -0.05600
C222        C  0.32093697  0.97286150  0.43630129    -0.09100
C223        C  0.33411115  0.94922784  0.43036061    -0.25700
S224        S  0.41350090  0.93766515  0.34183496    -0.02900
C225        C  0.42697511  0.97295192  0.31522055    -0.16300
C226        C  0.41340061  0.99614811  0.32112063    -0.14300
H227        H  0.37504307  0.02610730  0.34908826     0.21000
H228        H  0.36936826  0.91669312  0.40062270     0.17100
H229        H  0.33078386  0.92743843  0.44594576     0.19600
H230        H  0.41910187  0.01977272  0.30696117     0.12900
C231        C  0.35472170  0.98998931  0.10265407     0.16800
C232        C  0.37255453  0.00296823  0.13159585    -0.32200
C233        C  0.39129606  0.98621940  0.14435261     0.21200
C234        C  0.39181682  0.95749584  0.12920082     0.03400
C235        C  0.37450611  0.94494480  0.10006096    -0.22000
C236        C  0.35616206  0.96196807  0.08714289     0.12600
S237        S  0.33060055  0.00662044  0.08309083    -0.05600
C238        C  0.32300158  0.97602687  0.05329941    -0.09100
C239        C  0.33827477  0.95401320  0.05881556    -0.25700
S240        S  0.41550382  0.94042308  0.14872467    -0.02900
C241        C  0.42562039  0.97286377  0.17728064    -0.16300
C242        C  0.41104438  0.99545613  0.17181940    -0.14300
H243        H  0.37200483  0.02524819  0.14355698     0.21000
H244        H  0.37542575  0.92295726  0.08791531     0.17100
H245        H  0.33652367  0.93332037  0.04284175     0.19600
H246        H  0.41494223  0.01760944  0.18702176     0.12900
C247        C  0.88570679  0.01101466  0.48339609     0.16800
C248        C  0.85734294  0.01368924  0.46876316    -0.32200
C249        C  0.82703352  0.00682551  0.48713111     0.21200
C250        C  0.82493929  0.99748290  0.51858588     0.03400
C251        C  0.85314771  0.99447674  0.53319115    -0.22000
C252        C  0.88355819  0.00155756  0.51488082     0.12600
S253        S  0.92522895  0.01938593  0.46540408    -0.05600
C254        C  0.93897139  0.00999604  0.00065676    -0.09100
C255        C  0.91406137  0.00079079  0.02491718    -0.25700
S256        S  0.78668741  0.99187027  0.03702405    -0.02900
C257        C  0.77317886  0.00255410  0.00202900    -0.16300
C258        C  0.79747997  0.00957785  0.47746265    -0.14300
H259        H  0.85907201  0.02132621  0.44425650     0.21000
H260        H  0.85170961  0.98748189  0.05783804     0.17100
H261        H  0.91829284  0.99427707  0.04862815     0.19600
H262        H  0.79468682  0.01779868  0.45399160     0.12900
C263        C  0.61190125  0.02682805  0.35712833     0.16800
C264        C  0.63312990  0.04327732  0.38387031    -0.32200
C265        C  0.64775783  0.02442512  0.39986586     0.21200
C266        C  0.64234764  0.99107217  0.38931739     0.03400
C267        C  0.62095817  0.97451151  0.36257404    -0.22000
C268        C  0.60551865  0.99297428  0.34700121     0.12600
S269        S  0.59055817  0.04471086  0.33536648    -0.05600
C270        C  0.57181875  0.00570654  0.31288639    -0.09100
C271        C  0.58231151  0.98058257  0.32164301    -0.25700
S272        S  0.66210696  0.97248023  0.41245655    -0.02900
C273        C  0.67688922  0.00957529  0.43701401    -0.16300
C274        C  0.66732714  0.03504799  0.42728207    -0.14300
H275        H  0.63739459  0.06928988  0.39224947     0.21000
H276        H  0.61590977  0.94805762  0.35467408     0.17100
H277        H  0.57301468  0.95446066  0.31037930     0.19600
H278        H  0.67376363  0.05970768  0.43999149     0.12900
C279        C  0.64459333  0.03580625  0.09106862     0.16800
C280        C  0.62465595  0.04679238  0.11000730    -0.32200
C281        C  0.60673322  0.02514934  0.13636483     0.21200
C282        C  0.60868656  0.99407327  0.14341512     0.03400
C283        C  0.62929335  0.98367849  0.12500790    -0.22000
C284        C  0.64712925  0.00521526  0.09876420     0.12600
S285        S  0.66550511  0.05612354  0.05651597    -0.05600
C286        C  0.67802807  0.02320367  0.05274784    -0.09100
C287        C  0.66672357  0.99819385  0.07716709    -0.25700
S288        S  0.58311024  0.96983030  0.17476995    -0.02900
C289        C  0.56988131  0.00205127  0.17893524    -0.16300
C290        C  0.58472567  0.03018982  0.15704234    -0.14300
H291        H  0.62239187  0.07050413  0.10399371     0.21000
H292        H  0.63055791  0.95927757  0.13043303     0.17100
H293        H  0.67096882  0.97496433  0.07817897     0.19600
H294        H  0.57881263  0.05231692  0.15573003     0.12900
C295        C  0.88937236  0.88620261  0.02330728     0.16800
C296        C  0.86122088  0.85363326  0.03621442    -0.32200
C297        C  0.83437681  0.82850532  0.01567822     0.21200
C298        C  0.83543508  0.83562065  0.98381050     0.03400
C299        C  0.86335276  0.86829441  0.97092673    -0.22000
C300        C  0.89025074  0.89330734  0.99138702     0.12600
S301        S  0.92523662  0.91957712  0.04397853    -0.08300
C302        C  0.94148958  0.94324670  0.00922724    -0.09100
C303        C  0.91997913  0.92616372  0.48318540    -0.25700
S304        S  0.80101077  0.80135306  0.46278748    -0.02900
C305        C  0.78457383  0.77655789  0.99724290    -0.16300
C306        C  0.80540762  0.79487092  0.02354932    -0.14300
H307        H  0.86053594  0.84791740  0.06109747     0.21000
H308        H  0.86428843  0.87379809  0.44597754     0.17100
H309        H  0.92617293  0.93700538  0.45951547     0.19600
H310        H  0.80047193  0.78406439  0.04722006     0.12900
C311        C  0.62197770  0.62202442  0.35036462     0.16800
C312        C  0.64293326  0.65317056  0.36871866    -0.32200
C313        C  0.66139115  0.64967722  0.39477532     0.21200
C314        C  0.65914682  0.61661986  0.40219683     0.03400
C315        C  0.63899538  0.58569330  0.38331598    -0.22000
C316        C  0.62042798  0.58916683  0.35728650     0.12600
S317        S  0.59530172  0.62001312  0.31937493    -0.05600
C318        C  0.58224615  0.57453761  0.31530553    -0.09100
C319        C  0.59800489  0.56186477  0.33694098    -0.25700
S320        S  0.68027521  0.61705075  0.43662007    -0.02900
C321        C  0.69252934  0.66235247  0.44096505    -0.16300
C322        C  0.68103364  0.67617963  0.41664724    -0.14300
H323        H  0.64387456  0.67873604  0.36348815     0.21000
H324        H  0.63691831  0.55976816  0.38923862     0.17100
H325        H  0.59241231  0.53393610  0.33834422     0.19600
H326        H  0.68486048  0.70350620  0.41605266     0.12900
C327        C  0.61471787  0.58550233  0.13370087     0.16800
C328        C  0.63578024  0.59013299  0.10688768    -0.32200
C329        C  0.65199902  0.62423701  0.09181968     0.21200
C330        C  0.64779247  0.65265749  0.10308622     0.03400
C331        C  0.62616720  0.64781699  0.12963531    -0.22000
C332        C  0.60959834  0.61353423  0.14455277     0.12600
S333        S  0.59348312  0.54643714  0.15557779    -0.05600
C334        C  0.57692792  0.56774613  0.17938071    -0.09100
C335        C  0.58746969  0.60332410  0.17060036    -0.25700
S336        S  0.67018576  0.69206019  0.08155363    -0.02900
C337        C  0.68464336  0.66971977  0.05668179    -0.16300
C338        C  0.67284917  0.63375501  0.06511684    -0.14300
H339        H  0.63937664  0.56809766  0.09815051     0.21000
H340        H  0.62240622  0.66978559  0.13826475     0.17100
H341        H  0.57969376  0.62084061  0.18279763     0.19600
H342        H  0.67892430  0.61542617  0.05215756     0.12900
C343        C  0.18535227  0.18731630  0.98325512     0.16800
C344        C  0.15889051  0.15361253  0.97089495    -0.32200
C345        C  0.12895533  0.13096462  0.98999908     0.21200
C346        C  0.12530044  0.14160714  0.01993493     0.03400
C347        C  0.15171909  0.17529172  0.03223977    -0.22000
C348        C  0.18184955  0.19771860  0.01328341     0.12600
S349        S  0.22377112  0.21866109  0.96398446    -0.05600
C350        C  0.23565700  0.24607932  0.99689832    -0.09100
C351        C  0.21048883  0.23127262  0.52122799    -0.25700
S352        S  0.08686577  0.11056815  0.53930502    -0.02900
C353        C  0.07574875  0.08281139  0.00686004    -0.16300
C354        C  0.10058425  0.09705639  0.98239163    -0.14300
H355        H  0.16159598  0.14533937  0.94746840     0.21000
H356        H  0.14894730  0.18362579  0.55562287     0.17100
H357        H  0.21260940  0.24453291  0.54347228     0.19600
H358        H  0.09773899  0.08344261  0.96019562     0.12900
C359        C  0.39916704  0.40290300  0.35261755     0.16800
C360        C  0.37974940  0.37166064  0.37127611    -0.32200
C361        C  0.36148892  0.37435926  0.39760763     0.21200
C362        C  0.36244990  0.40675342  0.40507721     0.03400
C363        C  0.38110166  0.43781743  0.38587762    -0.22000
C364        C  0.39950735  0.43514064  0.35949734     0.12600
S365        S  0.42539808  0.40571259  0.32129742    -0.05600
C366        C  0.43686670  0.45075462  0.31703811    -0.09100
C367        C  0.42076504  0.46271278  0.33877464    -0.25700
S368        S  0.34141720  0.40525914  0.43971672    -0.02900
C369        C  0.33087744  0.36040923  0.44383993    -0.16300
C370        C  0.34294701  0.34751702  0.41950666    -0.14300
H371        H  0.37978013  0.34662182  0.36601347     0.21000
H372        H  0.38214906  0.46322789  0.39177178     0.17100
H373        H  0.42544977  0.49031890  0.34005952     0.19600
H374        H  0.33992574  0.32052128  0.41873849     0.12900
C375        C  0.37214983  0.36708639  0.10517158     0.16800
C376        C  0.39602438  0.37420497  0.13055659    -0.32200
C377        C  0.40720826  0.40651570  0.14754233     0.21200
C378        C  0.39471995  0.43034729  0.13991718     0.03400
C379        C  0.37106862  0.42334517  0.11448558    -0.22000
C380        C  0.36039813  0.39142727  0.09721454     0.12600
S381        S  0.35635083  0.33015437  0.08080853    -0.05600
C382        C  0.33446155  0.34828014  0.05941858    -0.09100
C383        C  0.33898220  0.38089103  0.07085906    -0.25700
S384        S  0.41154179  0.46813408  0.16316181    -0.02900
C385        C  0.43625680  0.45210212  0.18309412    -0.16300
C386        C  0.43124856  0.41897200  0.17227562    -0.14300
H387        H  0.40588256  0.35568289  0.13650229     0.21000
H388        H  0.36183661  0.44226338  0.10812137     0.17100
H389        H  0.32780752  0.39642756  0.05998931     0.19600
H390        H  0.44479834  0.40499801  0.18175097     0.12900
C391        C  0.26916474  0.28262482  0.49852349     0.04000
C392        C  0.28614654  0.29734796  0.52759453    -0.12200
C393        C  0.31621959  0.33282350  0.52926548     0.01500
C394        C  0.32964753  0.35368503  0.00184989    -0.10700
C395        C  0.31428956  0.33892060  0.97260517     0.04000
C396        C  0.28422520  0.30335361  0.97099352    -0.10100
H397        H  0.27602415  0.28146363  0.54898145     0.09600
H398        H  0.35315850  0.38095762  0.00315794     0.07100
H399        H  0.27205575  0.29241097  0.94831706     0.06900
C400        C  0.75193383  0.73883461  0.49797108     0.04000
C401        C  0.73407281  0.72244950  0.52648209    -0.12200
C402        C  0.70459903  0.68640235  0.52715831     0.01500
C403        C  0.69270753  0.66659418  0.49912003    -0.10700
C404        C  0.70868910  0.68271748  0.97037408     0.04000
C405        C  0.73820604  0.71872193  0.96988045    -0.10100
H406        H  0.74275965  0.73748754  0.54827693     0.09600
H407        H  0.66940051  0.63914727  0.49945395     0.07100
H408        H  0.75057242  0.73065423  0.94749478     0.06900
O409        O  0.53329674  0.56034351  0.78015215    -0.70900
O410        O  0.46265982  0.50134664  0.71930091    -0.71100
O411        O  0.46465268  0.50295778  0.78279205    -0.71000
O412        O  0.53105053  0.55819687  0.71706458    -0.71000
O413        O  0.55267974  0.52111228  0.71812241    -0.71000
O414        O  0.48508799  0.46490291  0.78165279    -0.71000
O415        O  0.48456743  0.46449713  0.71885561    -0.70900
O416        O  0.55356758  0.52215674  0.78176785    -0.71100
V417        V  0.49828489  0.52997603  0.74990152     1.35200
V418        V  0.51865813  0.49400180  0.75017959     1.35200
C419        C  0.55533003  0.55129557  0.79146016     0.78300
C420        C  0.46201710  0.47329748  0.70827118     0.78400
C421        C  0.46325848  0.47405037  0.79294742     0.78200
C422        C  0.55276449  0.54855627  0.70612225     0.78200
C423        C  0.74007709  0.00652133  0.49940492     0.04000
C424        C  0.72394169  0.00520204  0.96997420    -0.12200
C425        C  0.69466822  0.01196711  0.96753943     0.01500
C426        C  0.68115603  0.01971980  0.49471674    -0.10700
C427        C  0.69547977  0.01922537  0.52426393     0.04000
C428        C  0.72481793  0.01261414  0.52651504    -0.10100
H429        H  0.73405604  0.99911695  0.94886220     0.09600
H430        H  0.65803114  0.02410232  0.49301623     0.07100
H431        H  0.73609146  0.01306916  0.54948610     0.06900
C432        C  0.25798271  0.98236517  0.49426137     0.04000
C433        C  0.27439703  0.98128505  0.52293785    -0.12200
C434        C  0.30451288  0.97552436  0.52336936     0.01500
C435        C  0.31822977  0.97091100  0.49481487    -0.10700
C436        C  0.30318324  0.97317743  0.96611206     0.04000
C437        C  0.27309971  0.97873336  0.96599573    -0.10100
H438        H  0.26341952  0.98412759  0.54498910     0.09600
H439        H  0.34213251  0.96773427  0.49481463     0.07100
H440        H  0.26179643  0.98063419  0.94366564     0.06900
O441        O  0.45427913  0.95203609  0.77822219    -0.70900
O442        O  0.52295466  0.96665578  0.71486718    -0.71100
O443        O  0.52396243  0.96744759  0.77760108    -0.71000
O444        O  0.45352762  0.95172328  0.71437619    -0.71000
O445        O  0.47091591  0.00957488  0.71474995    -0.71000
O446        O  0.54229021  0.02550615  0.77666109    -0.71000
O447        O  0.54065870  0.02456639  0.71313968    -0.70900
O448        O  0.47249538  0.01008834  0.77785296    -0.71100
V449        V  0.48888361  0.96057987  0.74623788     1.35200
V450        V  0.50627035  0.01632739  0.74562454     1.35200
C451        C  0.45210518  0.97858881  0.78925094     0.78300
C452        C  0.54345182  0.99785514  0.70322089     0.78400
C453        C  0.54513511  0.99925977  0.78785566     0.78200
C454        C  0.45067315  0.97813662  0.70347301     0.78200
C455        C  0.98917411  0.26941677  0.50608494     0.04000
C456        C  0.99001438  0.28625342  0.97711206    -0.12200
C457        C  0.98677770  0.31786300  0.97609313     0.01500
C458        C  0.98304810  0.33285597  0.50426663    -0.10700
C459        C  0.98406369  0.31753974  0.53323345     0.04000
C460        C  0.98691026  0.28588477  0.53401160    -0.10100
H461        H  0.99219529  0.27441460  0.95529714     0.09600
H462        H  0.98157808  0.35775262  0.50374211     0.07100
H463        H  0.98780536  0.27440769  0.55658630     0.06900
C464        C  0.03422628  0.76075949  0.50166750     0.04000
C465        C  0.03831323  0.74468900  0.52944817    -0.12200
C466        C  0.04661013  0.71625268  0.52796212     0.01500
C467        C  0.05085380  0.70409460  0.99851288    -0.10700
C468        C  0.04605751  0.71904471  0.97063409     0.04000
C469        C  0.03794996  0.74739363  0.97245596    -0.10100
H470        H  0.03470064  0.75390469  0.55214662     0.09600
H471        H  0.05575997  0.68130221  0.99738445     0.07100
H472        H  0.03484880  0.75924214  0.95089276     0.06900
O473        O  0.03189712  0.48826646  0.78373560    -0.70900
O474        O  0.04768499  0.55818357  0.71932543    -0.71100
O475        O  0.05144461  0.55930894  0.78307398    -0.71000
O476        O  0.02865405  0.48728550  0.72073919    -0.71000
O477        O  0.97137072  0.47181610  0.72307829    -0.71000
O478        O  0.99455185  0.54541362  0.78464805    -0.71000
O479        O  0.99040416  0.54260599  0.72190774    -0.70900
O480        O  0.97508733  0.47433023  0.78658501    -0.71100
V481        V  0.03884615  0.52304957  0.75176031     1.35200
V482        V  0.98396513  0.50875194  0.75402199     1.35200
C483        C  0.00076271  0.46965502  0.79631007     0.78300
C484        C  0.02138957  0.56196258  0.70951930     0.78400
C485        C  0.02693936  0.56459605  0.79452149     0.78200
C486        C  0.99630495  0.46743231  0.71116523     0.78200
C487        C  0.04159465  0.04704017  0.50535134     0.03100
C488        C  0.00747011  0.04587401  0.50382928     0.03100
C489        C  0.97469356  0.01165949  0.50434867     0.03100
C490        C  0.97597294  0.97890248  0.50739106     0.03100
C491        C  0.01008430  0.98010557  0.50857774     0.03100
C492        C  0.04299899  0.01419445  0.50666902     0.03100
C493        C  0.00880593  0.83649840  0.49107429     0.16800
C494        C  0.99789198  0.86064614  0.47929470    -0.32200
C495        C  0.00583043  0.89142096  0.49736623     0.21200
C496        C  0.02345479  0.89767305  0.52610518     0.03400
C497        C  0.03414627  0.87331925  0.53801049    -0.22000
C498        C  0.02654609  0.84266826  0.51972267     0.12600
S499        S  0.00336314  0.79880579  0.47182724    -0.05600
C500        C  0.02561955  0.79101763  0.50246694    -0.09100
C501        C  0.03610315  0.81660153  0.02652833    -0.25700
S502        S  0.03163218  0.93727283  0.04390410    -0.02900
C503        C  0.01151323  0.94571349  0.51202932    -0.16300
C504        C  0.99883372  0.91881420  0.48919165    -0.14300
H505        H  0.98446128  0.85602974  0.45672666     0.21000
H506        H  0.04840650  0.87843391  0.06022599     0.17100
H507        H  0.05102774  0.81694423  0.04734056     0.19600
H508        H  0.98613869  0.91982960  0.46737870     0.12900
C509        C  0.05739879  0.62940098  0.86489119     0.16800
C510        C  0.07219478  0.64755919  0.89326400    -0.32200
C511        C  0.05849899  0.66908518  0.90551062     0.21200
C512        C  0.03208611  0.67332125  0.88977494     0.03400
C513        C  0.01745291  0.65536657  0.86124925    -0.22000
C514        C  0.03025691  0.63282439  0.84952951     0.12600
S515        S  0.06880776  0.60030021  0.84721154    -0.05600
C516        C  0.03588464  0.59177091  0.81937589    -0.09100
C517        C  0.01754446  0.61098371  0.82346332    -0.25700
S518        S  0.01777953  0.69905866  0.90942495    -0.02900
C519        C  0.04670049  0.70305799  0.93981156    -0.16300
C520        C  0.06715743  0.68622319  0.93406223    -0.14300
H521        H  0.09258555  0.64406018  0.90578518     0.21000
H522        H  0.99610075  0.65780104  0.84932175     0.17100
H523        H  0.99585061  0.60875848  0.80837804     0.19600
H524        H  0.08647680  0.68543383  0.95034761     0.12900
C525        C  0.05945419  0.66142410  0.59477072     0.16800
C526        C  0.06964831  0.64066548  0.61382680    -0.32200
C527        C  0.04822914  0.62342817  0.64048465     0.21200
C528        C  0.01788534  0.62654650  0.64751156     0.03400
C529        C  0.00802028  0.64760572  0.62872574    -0.22000
C530        C  0.02955947  0.66507362  0.60233102     0.12600
S531        S  0.08051802  0.68288335  0.56059666    -0.05600
C532        C  0.04895369  0.69732889  0.55662394    -0.09100
C533        C  0.02364675  0.68593084  0.58079903    -0.25700
S534        S  0.99423081  0.60229181  0.67972359    -0.02900
C535        C  0.02571334  0.58804341  0.68437077    -0.16300
C536        C  0.05313094  0.60155932  0.66181761    -0.14300
H537        H  0.09293019  0.63771141  0.60791171     0.21000
H538        H  0.98426460  0.64990161  0.63425108     0.17100
H539        H  0.00111132  0.69122575  0.58182330     0.19600
H540        H  0.07478892  0.59498278  0.66061721     0.12900
C541        C  0.01123539  0.13809097  0.98791955     0.16800
C542        C  0.01736756  0.17174059  0.97593484    -0.32200
C543        C  0.00368235  0.19067243  0.99305535     0.21200
C544        C  0.98485096  0.17672767  0.02092310     0.03400
C545        C  0.97871958  0.14310827  0.03292168    -0.22000
C546        C  0.99234280  0.12416753  0.01578536     0.12600
S547        S  0.02555099  0.11093109  0.97067647    -0.05600
C548        C  0.00610311  0.08050616  0.50143601    -0.09100
C549        C  0.98929777  0.09117310  0.52364771    -0.25700
S550        S  0.97073019  0.20389970  0.53828737    -0.02900
C551        C  0.99032152  0.23469978  0.50768386    -0.16300
C552        C  0.00682758  0.22378645  0.98527667    -0.14300
H553        H  0.03216639  0.18268783  0.95419190     0.21000
H554        H  0.96397146  0.13220154  0.55469116     0.17100
H555        H  0.97581029  0.07566776  0.54456898     0.19600
H556        H  0.02091715  0.23943284  0.96459702     0.12900
C557        C  0.96737512  0.40119563  0.64157396     0.16800
C558        C  0.95115121  0.38015802  0.61462490    -0.32200
C559        C  0.97029960  0.36577127  0.59883034     0.21200
C560        C  0.00362901  0.37134849  0.60983798     0.03400
C561        C  0.01988279  0.39249559  0.63657771    -0.22000
C562        C  0.00117622  0.40749915  0.65190365     0.12600
S563        S  0.94951706  0.42238528  0.66350578    -0.05600
C564        C  0.98850374  0.44058945  0.68618473    -0.09100
C565        C  0.01347531  0.43016115  0.67734547    -0.25700
S566        S  0.02266507  0.35176430  0.58758418    -0.02900
C567        C  0.98584084  0.33659102  0.56265679    -0.16300
C568        C  0.96007905  0.34606298  0.57143819    -0.14300
H569        H  0.92513032  0.37576554  0.60603982     0.21000
H570        H  0.04627944  0.39755962  0.64477460     0.17100
H571        H  0.03962356  0.43926610  0.68860303     0.19600
H572        H  0.93548198  0.33917041  0.55833216     0.12900
C573        C  0.00713085  0.37086054  0.89791222     0.16800
C574        C  0.02320264  0.39137666  0.87057892    -0.32200
C575        C  0.00594993  0.40865087  0.85594852     0.21200
C576        C  0.97366528  0.40492222  0.86761296     0.03400
C577        C  0.95773431  0.38462129  0.89501699    -0.22000
C578        C  0.97543525  0.36808792  0.91003227     0.12600
S579        S  0.02439707  0.34882791  0.91977066    -0.05600
C580        C  0.98905836  0.33653495  0.94594137    -0.09100
C581        C  0.96513041  0.34872990  0.93770563    -0.25700
S582        S  0.95696304  0.42792446  0.84655333    -0.02900
C583        C  0.99438263  0.44369541  0.82219539    -0.16300
C584        C  0.01811621  0.43108351  0.82996704    -0.14300
H585        H  0.04838017  0.39426008  0.86142670     0.21000
H586        H  0.93294350  0.38233275  0.90452157     0.17100
H587        H  0.94171017  0.34407591  0.95151588     0.19600
H588        H  0.04307453  0.43820758  0.81745884     0.12900
C589        C  0.13547265  0.01722464  0.51669334     0.16800
C590        C  0.16796059  0.01983542  0.52804752    -0.32200
C591        C  0.18487372  0.00496266  0.50961120     0.21200
C592        C  0.17031034  0.98864707  0.48098761     0.03400
C593        C  0.13790926  0.98612073  0.46956318    -0.22000
C594        C  0.12080125  0.00061103  0.48815410     0.12600
S595        S  0.10988718  0.03201233  0.53617930    -0.05600
C596        C  0.07878977  0.01518117  0.50574642    -0.09100
C597        C  0.08837833  0.99947659  0.98170879    -0.25700
S598        S  0.19485511  0.97229420  0.96224932    -0.02900
C599        C  0.22529928  0.98728612  0.49336857    -0.16300
C600        C  0.21625774  0.00420447  0.51689635    -0.14300
H601        H  0.17927160  0.03243719  0.55046935     0.21000
H602        H  0.12631751  0.97305103  0.94735805     0.17100
H603        H  0.07185586  0.98690880  0.96106643     0.19600
H604        H  0.23195591  0.01583059  0.53808586     0.12900
C605        C  0.35383247  0.98773364  0.88793208     0.16800
C606        C  0.37348608  0.00220239  0.86007880    -0.32200
C607        C  0.39174083  0.98519395  0.84736923     0.21200
C608        C  0.38979211  0.95452558  0.86130135     0.03400
C609        C  0.37035716  0.94020096  0.88934287    -0.22000
C610        C  0.35280792  0.95779352  0.90247072     0.12600
S611        S  0.33109733  0.00542740  0.90760844    -0.05600
C612        C  0.32095306  0.97288564  0.93632186    -0.09100
C613        C  0.33415367  0.94927066  0.93039659    -0.25700
S614        S  0.41354327  0.93770142  0.84187528    -0.02900
C615        C  0.42697436  0.97295709  0.81523468    -0.16300
C616        C  0.41337817  0.99613779  0.82112117    -0.14300
H617        H  0.37499353  0.02607744  0.84907181     0.21000
H618        H  0.36944467  0.91675788  0.90068182     0.17100
H619        H  0.33084958  0.92749972  0.94599415     0.19600
H620        H  0.41905275  0.01974312  0.80694496     0.12900
C621        C  0.35475897  0.99001962  0.60262643     0.16800
C622        C  0.37259671  0.00300726  0.63156540    -0.32200
C623        C  0.39132443  0.98624961  0.64433392     0.21200
C624        C  0.39182929  0.95751119  0.62919483     0.03400
C625        C  0.37451589  0.94495283  0.60005655    -0.22000
C626        C  0.35618365  0.96198316  0.58712757     0.12600
S627        S  0.33064397  0.00665237  0.58305505    -0.05600
C628        C  0.32302434  0.97603729  0.55327735    -0.09100
C629        C  0.33828949  0.95401797  0.55880255    -0.25700
S630        S  0.41549740  0.94042713  0.64873353    -0.02900
C631        C  0.42562731  0.97288208  0.67727919    -0.16300
C632        C  0.41106970  0.99548803  0.67180295    -0.14300
H633        H  0.37205803  0.02529801  0.64351712     0.21000
H634        H  0.37542198  0.92295224  0.58792152     0.17100
H635        H  0.33652479  0.93331166  0.54283799     0.19600
H636        H  0.41497724  0.01765118  0.68699693     0.12900
C637        C  0.88571815  0.01101709  0.98339606     0.16800
C638        C  0.85736137  0.01370242  0.96876214    -0.32200
C639        C  0.82705234  0.00684294  0.98712798     0.21200
C640        C  0.82495206  0.99749520  0.01858203     0.03400
C641        C  0.85315410  0.99447976  0.03318862    -0.22000
C642        C  0.88356380  0.00155524  0.01488016     0.12600
S643        S  0.92523840  0.01938120  0.96540626    -0.05600
C644        C  0.93897053  0.01000949  0.50065434    -0.09100
C645        C  0.91406137  0.00080207  0.52491634    -0.25700
S646        S  0.78667516  0.99185593  0.53703121    -0.02900
C647        C  0.77315900  0.00253380  0.50203705    -0.16300
C648        C  0.79750331  0.00960101  0.97745740    -0.14300
H649        H  0.85909498  0.02134311  0.94425588     0.21000
H650        H  0.85170788  0.98748311  0.55784106     0.17100
H651        H  0.91829620  0.99429057  0.54862694     0.19600
H652        H  0.79471437  0.01782519  0.95398627     0.12900
C653        C  0.61192969  0.02683735  0.85710850     0.16800
C654        C  0.63317093  0.04329255  0.88384254    -0.32200
C655        C  0.64779223  0.02443652  0.89984067     0.21200
C656        C  0.64236662  0.99107484  0.88930063     0.03400
C657        C  0.62096662  0.97450919  0.86256323    -0.22000
C658        C  0.60553083  0.99297521  0.84698951     0.12600
S659        S  0.59058533  0.04472162  0.83535130    -0.05600
C660        C  0.57182175  0.00570673  0.81288480    -0.09100
C661        C  0.58230939  0.98057844  0.82164082    -0.25700
S662        S  0.66211599  0.97247768  0.91244596    -0.02900
C663        C  0.67691283  0.00958248  0.93699424    -0.16300
C664        C  0.66736446  0.03506211  0.92725474    -0.14300
H665        H  0.63744682  0.06931123  0.89221610     0.21000
H666        H  0.61590464  0.94804815  0.85467064     0.17100
H667        H  0.57299831  0.95445021  0.81038444     0.19600
H668        H  0.67381017  0.05972758  0.93995892     0.12900
C669        C  0.64457768  0.03581062  0.59107837     0.16800
C670        C  0.62461116  0.04677760  0.60999861    -0.32200
C671        C  0.60673246  0.02516557  0.63638197     0.21200
C672        C  0.60875791  0.99413865  0.64347697     0.03400
C673        C  0.62939759  0.98376675  0.62508888    -0.22000
C674        C  0.64718635  0.00527070  0.59881631     0.12600
S675        S  0.66543356  0.05608410  0.55649713    -0.05600
C676        C  0.67802927  0.02321352  0.55276944    -0.09100
C677        C  0.66679134  0.99825397  0.57722595    -0.25700
S678        S  0.58321469  0.96991590  0.67485419    -0.02900
C679        C  0.56990199  0.00207960  0.67896508    -0.16300
C680        C  0.58469759  0.03018647  0.65704162    -0.14300
H681        H  0.62228782  0.07044717  0.60394985     0.21000
H682        H  0.63071653  0.95940235  0.63054710     0.17100
H683        H  0.67108519  0.97505608  0.57826834     0.19600
H684        H  0.57872754  0.05227318  0.65569341     0.12900
C685        C  0.88935595  0.88621936  0.52329737     0.16800
C686        C  0.86120154  0.85365333  0.53620573    -0.32200
C687        C  0.83435045  0.82853097  0.51567188     0.21200
C688        C  0.83540429  0.83564947  0.48380487     0.03400
C689        C  0.86332474  0.86832018  0.47091988    -0.22000
C690        C  0.89023063  0.89332682  0.49137774     0.12600
S691        S  0.92522838  0.91958593  0.54396616    -0.08300
C692        C  0.94148021  0.94325555  0.50921496    -0.09100
C693        C  0.91999454  0.92614877  0.98319603    -0.25700
S694        S  0.80104842  0.80131829  0.96279104    -0.02900
C695        C  0.78454112  0.77659001  0.49723879    -0.16300
C696        C  0.80537942  0.79489842  0.52354388    -0.14300
H697        H  0.86052021  0.84793504  0.56108838     0.21000
H698        H  0.86431968  0.87377044  0.94598430     0.17100
H699        H  0.92619017  0.93698869  0.95952597     0.19600
H700        H  0.80044650  0.78408841  0.54721373     0.12900
C701        C  0.62196846  0.62199043  0.85038116     0.16800
C702        C  0.64290909  0.65313011  0.86874744    -0.32200
C703        C  0.66138067  0.64963900  0.89479510     0.21200
C704        C  0.65916193  0.61658894  0.90219797     0.03400
C705        C  0.63902439  0.58566860  0.88330459    -0.22000
C706        C  0.62044448  0.58914047  0.85728230     0.12600
S707        S  0.59528244  0.61997850  0.81939906    -0.05600
C708        C  0.58225601  0.57451295  0.81530197    -0.09100
C709        C  0.59803248  0.56184392  0.83692493    -0.25700
S710        S  0.68030781  0.61702171  0.93661324    -0.02900
C711        C  0.69253786  0.66231540  0.94097746    -0.16300
C712        C  0.68101804  0.67613719  0.91667290    -0.14300
H713        H  0.64383069  0.67868919  0.86353170     0.21000
H714        H  0.63696870  0.55974919  0.88921163     0.17100
H715        H  0.59245904  0.53392078  0.83831213     0.19600
H716        H  0.68482871  0.70345777  0.91609023     0.12900
C717        C  0.61458838  0.58546340  0.63362122     0.16800
C718        C  0.63560326  0.59008130  0.60677855    -0.32200
C719        C  0.65189086  0.62421479  0.59175811     0.21200
C720        C  0.64778998  0.65267237  0.60309354     0.03400
C721        C  0.62620899  0.64784540  0.62967098    -0.22000
C722        C  0.60957610  0.61353619  0.64454462     0.12600
S723        S  0.59330163  0.54637190  0.65545970    -0.05600
C724        C  0.57687405  0.56772915  0.67934593    -0.09100
C725        C  0.58748813  0.60333876  0.67061758    -0.25700
S726        S  0.67025766  0.69210610  0.58161047    -0.02900
C727        C  0.68460533  0.66973163  0.55666669    -0.16300
C728        C  0.67272189  0.63373211  0.56504504    -0.14300
H729        H  0.63911884  0.56801685  0.59798747     0.21000
H730        H  0.62253388  0.66984561  0.63835745     0.17100
H731        H  0.57979681  0.62088715  0.68287201     0.19600
H732        H  0.67872371  0.61537892  0.55204088     0.12900
C733        C  0.18535682  0.18731196  0.48325533     0.16800
C734        C  0.15890860  0.15359715  0.47090245    -0.32200
C735        C  0.12896505  0.13095522  0.49000104     0.21200
C736        C  0.12529008  0.14161349  0.51992438     0.03400
C737        C  0.15169450  0.17530888  0.53222157    -0.22000
C738        C  0.18183283  0.19772997  0.51327129     0.12600
S739        S  0.22378243  0.21865336  0.46398994    -0.05600
C740        C  0.23564079  0.24609028  0.49688999    -0.09100
C741        C  0.21051703  0.23125254  0.02124497    -0.25700
S742        S  0.08688319  0.11055534  0.03932084    -0.02900
C743        C  0.07575240  0.08280658  0.50685784    -0.16300
C744        C  0.10060192  0.09704042  0.48239846    -0.14300
H745        H  0.16162988  0.14531185  0.44748545     0.21000
H746        H  0.14898871  0.18359590  0.05565127     0.17100
H747        H  0.21265291  0.24449977  0.04349926     0.19600
H748        H  0.09776987  0.08341607  0.46021052     0.12900
C749        C  0.39918287  0.40287689  0.85261264     0.16800
C750        C  0.37976195  0.37163196  0.87126826    -0.32200
C751        C  0.36152039  0.37433543  0.89761204     0.21200
C752        C  0.36250353  0.40673671  0.90509586     0.03400
C753        C  0.38115834  0.43780309  0.88590023    -0.22000
C754        C  0.39954388  0.43512128  0.85950792     0.12600
S755        S  0.42539411  0.40568228  0.82127767    -0.05600
C756        C  0.43688111  0.45073133  0.81703476    -0.09100
C757        C  0.42079989  0.46269452  0.83878642    -0.25700
S758        S  0.34149002  0.40524658  0.93974482    -0.02900
C759        C  0.33092671  0.36038831  0.94385393    -0.16300
C760        C  0.34297578  0.34749059  0.91950901    -0.14300
H761        H  0.37977552  0.34658714  0.86599355     0.21000
H762        H  0.38222239  0.46321865  0.89180552     0.17100
H763        H  0.42549870  0.49030515  0.84008261     0.19600
H764        H  0.33993703  0.32048822  0.91873000     0.12900
C765        C  0.37214776  0.36711815  0.60514078     0.16800
C766        C  0.39603766  0.37424153  0.63051419    -0.32200
C767        C  0.40720469  0.40653799  0.64751660     0.21200
C768        C  0.39468791  0.43035301  0.63991762     0.03400
C769        C  0.37102093  0.42334643  0.61449662    -0.22000
C770        C  0.36036520  0.39144141  0.59720954     0.12600
S771        S  0.35636281  0.33019976  0.58076376    -0.05600
C772        C  0.33443513  0.34830585  0.55940291    -0.09100
C773        C  0.33893498  0.38090173  0.57086197    -0.25700
S774        S  0.41149481  0.46812473  0.66318105    -0.02900
C775        C  0.43623939  0.45210704  0.68308648    -0.16300
C776        C  0.43125229  0.41899349  0.67224453    -0.14300
H777        H  0.40591852  0.35573280  0.63643975     0.21000
H778        H  0.36176496  0.44225121  0.60815302     0.17100
H779        H  0.32773534  0.39642557  0.56001075     0.19600
H780        H  0.44482205  0.40503023  0.68170006     0.12900
loop_ 
_geom_bond_atom_site_label_1 
_geom_bond_atom_site_label_2 
_geom_bond_distance 
_geom_bond_site_symmetry_2 
_ccdc_geom_bond_type 
C1            C2   1.410   1_556  A
C1          C396   1.409       .  A
C1          C350   1.487       .  S
C2            C3   1.402       .  A
C2            H7   1.083       .  S
C3          C394   1.400       .  A
C3          C382   1.471       .  S
C4            C5   1.399       .  A
C4          C393   1.400       .  A
C4            H8   1.084       .  S
C5            C6   1.404       .  A
C5          C369   1.474       .  S
C6          C391   1.409       .  A
C6            H9   1.083       .  S
C10          C11   1.414   1_556  A
C10         C405   1.414       .  A
C10         C305   1.500       .  S
C11          C12   1.406       .  A
C11          H16   1.081       .  S
C12          C13   1.401   1_554  A
C12         C337   1.481       .  S
C13         C404   1.399       .  A
C13          H17   1.084       .  S
C14          C15   1.406       .  A
C14         C403   1.399       .  A
C14         C321   1.480       .  S
C15         C400   1.414       .  A
C15          H18   1.082       .  S
O19          V27   1.898       .  S
O19          C29   1.263       .  A
O20          V27   1.900       .  S
O20          C30   1.264       .  A
O21          V27   1.914       .  S
O21          C31   1.267       .  A
O22          V27   1.909       .  S
O22          C32   1.266       .  A
O23          V28   1.897       .  S
O23          C32   1.263       .  A
O24          V28   1.891       .  S
O24          C31   1.262       .  A
O25          V28   1.902       .  S
O25          C30   1.265       .  A
O26          V28   1.910       .  S
O26          C29   1.266       .  A
V27          V28   2.088       .  T
C29         C318   1.474       .  S
C30         C385   1.471       .  S
C31         C366   1.472       .  S
C32         C334   1.473       .  S
C33          C38   1.410   1_556  A
C33         C424   1.412       .  A
C33         C257   1.493   1_556  S
C34          C35   1.405       .  A
C34         C423   1.412       .  A
C34          H39   1.082   1_545  S
C35         C426   1.401       .  A
C35         C273   1.477       .  S
C36          C37   1.399   1_556  A
C36         C425   1.401       .  A
C36          H40   1.084       .  S
C37          C38   1.403       .  A
C37         C286   1.475       .  S
C38          H41   1.082       .  S
C42          C43   1.414   1_556  A
C42         C437   1.409       .  A
C42         C209   1.496       .  S
C43          C44   1.410       .  A
C43          H48   1.082       .  S
C44          C45   1.404   1_554  A
C44         C238   1.487       .  S
C45         C436   1.401       .  A
C45          H49   1.084       .  S
C46          C47   1.404       .  A
C46         C435   1.401       .  A
C46         C222   1.479       .  S
C47         C432   1.409       .  A
C47          H50   1.083       .  S
O51          V59   1.899       .  S
O51          C61   1.263       .  A
O52          V59   1.888       .  S
O52          C62   1.261       .  A
O53          V59   1.904       .  S
O53          C63   1.265       .  A
O54          V59   1.909       .  S
O54          C64   1.267       .  A
O55          V60   1.899       .  S
O55          C64   1.263   1_545  A
O56          V60   1.901       .  S
O56          C63   1.265   1_545  A
O57          V60   1.911       .  S
O57          C62   1.266   1_545  A
O58          V60   1.904       .  S
O58          C61   1.265   1_545  A
V59          V60   2.088   1_565  T
C61         C225   1.470       .  S
C62         C289   1.468   1_565  S
C63         C270   1.473   1_565  S
C64         C241   1.474       .  S
C65          C70   1.407       .  A
C65         C456   1.413   1_554  A
C65         C161   1.493       .  S
C66          C67   1.409       .  A
C66         C455   1.413       .  A
C66          H71   1.082       .  S
C67         C458   1.404       .  A
C67         C190   1.481       .  S
C68          C69   1.400       .  A
C68         C457   1.404   1_554  A
C68          H72   1.084       .  S
C69          C70   1.401       .  A
C69         C177   1.473       .  S
C70          H73   1.083       .  S
C74          C75   1.413       .  A
C74         C469   1.409   1_554  A
C74         C110   1.494       .  S
C75          C76   1.411       .  A
C75          H80   1.083       .  S
C76         C467   1.402   1_554  A
C76         C142   1.486       .  S
C77          C78   1.403       .  A
C77         C466   1.402       .  A
C77          H81   1.083       .  S
C78          C79   1.403       .  A
C78         C129   1.485       .  S
C79         C464   1.409       .  A
C79          H82   1.082       .  S
O83          V91   1.911       .  S
O83          C93   1.267       .  A
O84          V91   1.918       .  S
O84          C94   1.268       .  A
O85          V91   1.899       .  S
O85          C95   1.263       .  A
O86          V91   1.891       .  S
O86          C96   1.262   1_455  A
O87          V92   1.907       .  S
O87          C96   1.265       .  A
O88          V92   1.903       .  S
O88          C95   1.265   1_655  A
O89          V92   1.893       .  S
O89          C94   1.263   1_655  A
O90          V92   1.902       .  S
O90          C93   1.264   1_655  A
V91          V92   2.088   1_455  T
C93         C193   1.478   1_455  S
C94         C145   1.477       .  S
C95         C126   1.468       .  S
C96         C174   1.470       .  S
C97          C98   1.420       .  A
C97         C102   1.419       .  A
C97         C353   1.481       .  S
C98          C99   1.418   1_455  A
C98         C158   1.496       .  S
C99         C100   1.417   1_545  A
C99         C254   1.484       .  S
C100        C101   1.418   1_655  A
C100        C302   1.486       .  S
C101        C102   1.420   1_565  A
C101        C113   1.491       .  S
C102        C206   1.493       .  S
C103        C108   1.385   1_556  A
C103        C104   1.403   1_455  A
C103        S109   1.704       .  A
C104        C105   1.402   1_655  A
C104        H115   1.082       .  S
C105        C114   1.373   1_455  A
C105        C106   1.386   1_556  A
C106        C107   1.406       .  A
C106        S502   1.710       .  A
C107        C108   1.406       .  A
C107        H506   1.082       .  S
C108        C501   1.378       .  A
S109        C110   1.729   1_556  A
C110        C501   1.393       .  A
C111        C498   1.378       .  A
C111        C500   1.393       .  A
C111        H117   1.082       .  S
S112        C496   1.710       .  A
S112        C503   1.726       .  A
C113        C114   1.386   1_454  A
C113        S502   1.726       .  A
C114        H118   1.082       .  S
H116        C497   1.082       .  S
C119        C124   1.387       .  A
C119        C120   1.401       .  A
C119        S125   1.707       .  A
C120        C121   1.402       .  A
C120        H131   1.083       .  S
C121        C130   1.369       .  A
C121        C122   1.386       .  A
C122        C123   1.403       .  A
C122        S128   1.707       .  A
C123        C124   1.403       .  A
C123        H132   1.083   1_455  S
C124        C127   1.372       .  A
S125        C126   1.721       .  A
C126        C127   1.386       .  A
C127        H133   1.083   1_455  S
S128        C129   1.727       .  A
C129        C130   1.389       .  A
C130        H134   1.082       .  S
C135        C140   1.386       .  A
C135        C136   1.408       .  A
C135        S141   1.709       .  A
C136        C137   1.407       .  A
C136        H147   1.083       .  S
C137        C146   1.380       .  A
C137        C138   1.387       .  A
C138        C139   1.402       .  A
C138        S144   1.704   1_455  A
C139        C140   1.402       .  A
C139        H148   1.083   1_455  S
C140        C143   1.375       .  A
S141        C142   1.730       .  A
C142        C143   1.387       .  A
C143        H149   1.083       .  S
S144        C145   1.723   1_655  A
C145        C146   1.390       .  A
C146        H150   1.083       .  S
C151        C156   1.386   1_455  A
C151        C152   1.405       .  A
C151        S157   1.710       .  A
C152        C153   1.405       .  A
C152        H163   1.083       .  S
C153        C162   1.377       .  A
C153        C154   1.386   1_455  A
C154        C155   1.404       .  A
C154        S550   1.707       .  A
C155        C156   1.404       .  A
C155        H554   1.083       .  S
C156        C549   1.375       .  A
S157        C548   1.726       .  A
C158        C159   1.389   1_455  A
C158        S547   1.726   1_554  A
C159        C546   1.375       .  A
C159        H165   1.083       .  S
S160        C161   1.730       .  A
S160        C544   1.707       .  A
C161        C552   1.392   1_654  A
C162        C551   1.392   1_455  A
C162        H166   1.082       .  S
H164        C545   1.083       .  S
C167        C172   1.387   1_655  A
C167        C168   1.404       .  A
C167        S173   1.711       .  A
C168        C169   1.405       .  A
C168        H179   1.083       .  S
C169        C178   1.373       .  A
C169        C170   1.387   1_655  A
C170        C171   1.399       .  A
C170        S176   1.705       .  A
C171        C172   1.400       .  A
C171        H180   1.083       .  S
C172        C175   1.367       .  A
S173        C174   1.723       .  A
C174        C175   1.385   1_655  A
C175        H181   1.083       .  S
S176        C177   1.720   1_455  A
C177        C178   1.387       .  A
C178        H182   1.083       .  S
C183        C188   1.386   1_455  A
C183        C184   1.405       .  A
C183        S189   1.712       .  A
C184        C185   1.406       .  A
C184        H195   1.083       .  S
C185        C194   1.376       .  A
C185        C186   1.387   1_455  A
C186        C187   1.403       .  A
C186        S192   1.709       .  A
C187        C188   1.404       .  A
C187        H196   1.083       .  S
C188        C191   1.373       .  A
S189        C190   1.724   1_455  A
C190        C191   1.388       .  A
C191        H197   1.083       .  S
S192        C193   1.724       .  A
C193        C194   1.389   1_655  A
C194        H198   1.083       .  S
C199        C204   1.386   1_554  A
C199        C200   1.406       .  A
C199        S205   1.713       .  A
C200        C201   1.406       .  A
C200        H211   1.082       .  S
C201        C210   1.377       .  A
C201        C202   1.385   1_544  A
C202        C203   1.405       .  A
C202        S598   1.708       .  A
C203        C204   1.405   1_565  A
C203        H602   1.082       .  S
C204        C597   1.374   1_545  A
S205        C206   1.725       .  A
C206        C597   1.389   1_544  A
C207        C594   1.374   1_565  A
C207        C596   1.389   1_565  A
C207        H213   1.082       .  S
S208        C592   1.708       .  A
S208        C599   1.731       .  A
C209        C210   1.393   1_566  A
C209        S598   1.731       .  A
C210        H214   1.082       .  S
H212        C593   1.082       .  S
C215        C220   1.387       .  A
C215        C216   1.401   1_565  A
C215        S221   1.706   1_565  A
C216        C217   1.401   1_545  A
C216        H227   1.083       .  S
C217        C226   1.371       .  A
C217        C218   1.387       .  A
C218        C219   1.403       .  A
C218        S224   1.709       .  A
C219        C220   1.404       .  A
C219        H228   1.083       .  S
C220        C223   1.372       .  A
S221        C222   1.723   1_545  A
C222        C223   1.389       .  A
C223        H229   1.083       .  S
S224        C225   1.724       .  A
C225        C226   1.385       .  A
C226        H230   1.083   1_565  S
C231        C236   1.386       .  A
C231        C232   1.405   1_565  A
C231        S237   1.712   1_565  A
C232        C233   1.406   1_545  A
C232        H243   1.083       .  S
C233        C242   1.374       .  A
C233        C234   1.387       .  A
C234        C235   1.403       .  A
C234        S240   1.710       .  A
C235        C236   1.404       .  A
C235        H244   1.083       .  S
C236        C239   1.372       .  A
S237        C238   1.726   1_545  A
C238        C239   1.390       .  A
C239        H245   1.083       .  S
S240        C241   1.722       .  A
C241        C242   1.389       .  A
C242        H246   1.083   1_565  S
C247        C252   1.387       .  A
C247        C248   1.403       .  A
C247        S253   1.708       .  A
C248        C249   1.404       .  A
C248        H259   1.082       .  S
C249        C258   1.373       .  A
C249        C250   1.385   1_545  A
C250        C251   1.403       .  A
C250        S646   1.706       .  A
C251        C252   1.404   1_565  A
C251        H650   1.082       .  S
C252        C645   1.372       .  A
S253        C644   1.722       .  A
C254        C255   1.386       .  A
C254        S643   1.722   1_554  A
C255        C642   1.372       .  A
C255        H261   1.082   1_545  S
S256        C257   1.730   1_565  A
S256        C640   1.706       .  A
C257        C648   1.392   1_554  A
C258        C647   1.392       .  A
C258        H262   1.081       .  S
H260        C641   1.082       .  S
C263        C268   1.387   1_545  A
C263        C264   1.401       .  A
C263        S269   1.706       .  A
C264        C265   1.401       .  A
C264        H275   1.083       .  S
C265        C274   1.369       .  A
C265        C266   1.387   1_545  A
C266        C267   1.404       .  A
C266        S272   1.711       .  A
C267        C268   1.405       .  A
C267        H276   1.083       .  S
C268        C271   1.374       .  A
S269        C270   1.722       .  A
C270        C271   1.388   1_545  A
C271        H277   1.083       .  S
S272        C273   1.724   1_565  A
C273        C274   1.386       .  A
C274        H278   1.083       .  S
C279        C284   1.387       .  A
C279        C280   1.405       .  A
C279        S285   1.709       .  A
C280        C281   1.405       .  A
C280        H291   1.082       .  S
C281        C290   1.375       .  A
C281        C282   1.387   1_545  A
C282        C283   1.398       .  A
C282        S288   1.700       .  A
C283        C284   1.399   1_565  A
C283        H292   1.082       .  S
C284        C287   1.368   1_545  A
S285        C286   1.726       .  A
C286        C287   1.384   1_545  A
C287        H293   1.083       .  S
S288        C289   1.720   1_565  A
C289        C290   1.387       .  A
C290        H294   1.083       .  S
C295        C300   1.387   1_554  A
C295        C296   1.405       .  A
C295        S301   1.711       .  A
C296        C297   1.406       .  A
C296        H307   1.083       .  S
C297        C306   1.376       .  A
C297        C298   1.384   1_554  A
C298        C299   1.404       .  A
C298        S694   1.707       .  A
C299        C300   1.404       .  A
C299        H698   1.082       .  S
C300        C693   1.373       .  A
S301        C302   1.723       .  A
C302        C693   1.386   1_554  A
C303        C690   1.373       .  A
C303        C692   1.386       .  A
C303        H309   1.082       .  S
S304        C688   1.707       .  A
S304        C695   1.731       .  A
C305        C306   1.396   1_556  A
C305        S694   1.731       .  A
C306        H310   1.081       .  S
H308        C689   1.082       .  S
C311        C316   1.387       .  A
C311        C312   1.403       .  A
C311        S317   1.707       .  A
C312        C313   1.403       .  A
C312        H323   1.083       .  S
C313        C322   1.373       .  A
C313        C314   1.387       .  A
C314        C315   1.404       .  A
C314        S320   1.709       .  A
C315        C316   1.405       .  A
C315        H324   1.083       .  S
C316        C319   1.375       .  A
S317        C318   1.723       .  A
C318        C319   1.388       .  A
C319        H325   1.083       .  S
S320        C321   1.726       .  A
C321        C322   1.387       .  A
C322        H326   1.083       .  S
C327        C332   1.387       .  A
C327        C328   1.402       .  A
C327        S333   1.706       .  A
C328        C329   1.402       .  A
C328        H339   1.083       .  S
C329        C338   1.371       .  A
C329        C330   1.386       .  A
C330        C331   1.404       .  A
C330        S336   1.711       .  A
C331        C332   1.405       .  A
C331        H340   1.083       .  S
C332        C335   1.375       .  A
S333        C334   1.723       .  A
C334        C335   1.387       .  A
C335        H341   1.083       .  S
S336        C337   1.725       .  A
C337        C338   1.388       .  A
C338        H342   1.083       .  S
C343        C348   1.386   1_556  A
C343        C344   1.403       .  A
C343        S349   1.708       .  A
C344        C345   1.403       .  A
C344        H355   1.083       .  S
C345        C354   1.372       .  A
C345        C346   1.388   1_556  A
C346        C347   1.401       .  A
C346        S742   1.706       .  A
C347        C348   1.402       .  A
C347        H746   1.083       .  S
C348        C741   1.371       .  A
S349        C350   1.728       .  A
C350        C741   1.390   1_556  A
C351        C738   1.371       .  A
C351        C740   1.390       .  A
C351        H357   1.083       .  S
S352        C736   1.706       .  A
S352        C743   1.722       .  A
C353        C354   1.386   1_554  A
C353        S742   1.722       .  A
C354        H358   1.083       .  S
H356        C737   1.083       .  S
C359        C364   1.387       .  A
C359        C360   1.400       .  A
C359        S365   1.702       .  A
C360        C361   1.400       .  A
C360        H371   1.083       .  S
C361        C370   1.370       .  A
C361        C362   1.387       .  A
C362        C363   1.405       .  A
C362        S368   1.709       .  A
C363        C364   1.405       .  A
C363        H372   1.083       .  S
C364        C367   1.376       .  A
S365        C366   1.722       .  A
C366        C367   1.388       .  A
C367        H373   1.083       .  S
S368        C369   1.725       .  A
C369        C370   1.384       .  A
C370        H374   1.083       .  S
C375        C380   1.387       .  A
C375        C376   1.403       .  A
C375        S381   1.710       .  A
C376        C377   1.404       .  A
C376        H387   1.083       .  S
C377        C386   1.372       .  A
C377        C378   1.387       .  A
C378        C379   1.400       .  A
C378        S384   1.706       .  A
C379        C380   1.401       .  A
C379        H388   1.083       .  S
C380        C383   1.368       .  A
S381        C382   1.722       .  A
C382        C383   1.384       .  A
C383        H389   1.083       .  S
S384        C385   1.722       .  A
C385        C386   1.388       .  A
C386        H390   1.083       .  S
C391        C392   1.410       .  A
C391        C740   1.487       .  S
C392        C393   1.402       .  A
C392        H397   1.083       .  S
C393        C772   1.471       .  S
C394        C395   1.399   1_554  A
C394        H398   1.084       .  S
C395        C396   1.404       .  A
C395        C759   1.474       .  S
C396        H399   1.083       .  S
C400        C401   1.414       .  A
C400        C695   1.500       .  S
C401        C402   1.407       .  A
C401        H406   1.081       .  S
C402        C403   1.401       .  A
C402        C727   1.481       .  S
C403        H407   1.084       .  S
C404        C405   1.406       .  A
C404        C711   1.480       .  S
C405        H408   1.082       .  S
O409        V417   1.898       .  S
O409        C419   1.263       .  A
O410        V417   1.900       .  S
O410        C420   1.264       .  A
O411        V417   1.914       .  S
O411        C421   1.267       .  A
O412        V417   1.909       .  S
O412        C422   1.266       .  A
O413        V418   1.897       .  S
O413        C422   1.263       .  A
O414        V418   1.891       .  S
O414        C421   1.262       .  A
O415        V418   1.902       .  S
O415        C420   1.265       .  A
O416        V418   1.910       .  S
O416        C419   1.267       .  A
V417        V418   2.088       .  T
C419        C708   1.475       .  S
C420        C775   1.471       .  S
C421        C756   1.472       .  S
C422        C724   1.473       .  S
C423        C428   1.410       .  A
C423        C647   1.493       .  S
C424        C425   1.405       .  A
C424        H429   1.082   1_545  S
C425        C663   1.477       .  S
C426        C427   1.399       .  A
C426        H430   1.084       .  S
C427        C428   1.403       .  A
C427        C676   1.475       .  S
C428        H431   1.082       .  S
C432        C433   1.414       .  A
C432        C599   1.496       .  S
C433        C434   1.410       .  A
C433        H438   1.082       .  S
C434        C435   1.404       .  A
C434        C628   1.487       .  S
C435        H439   1.084       .  S
C436        C437   1.404       .  A
C436        C612   1.479       .  S
C437        H440   1.083       .  S
O441        V449   1.899       .  S
O441        C451   1.263       .  A
O442        V449   1.888       .  S
O442        C452   1.261       .  A
O443        V449   1.904       .  S
O443        C453   1.265       .  A
O444        V449   1.909       .  S
O444        C454   1.267       .  A
O445        V450   1.899       .  S
O445        C454   1.263   1_545  A
O446        V450   1.901       .  S
O446        C453   1.265   1_545  A
O447        V450   1.910       .  S
O447        C452   1.266   1_545  A
O448        V450   1.904       .  S
O448        C451   1.265   1_545  A
V449        V450   2.088   1_565  T
C451        C615   1.470       .  S
C452        C679   1.468   1_565  S
C453        C660   1.473   1_565  S
C454        C631   1.474       .  S
C455        C460   1.407       .  A
C455        C551   1.493       .  S
C456        C457   1.409       .  A
C456        H461   1.082       .  S
C457        C580   1.481       .  S
C458        C459   1.400       .  A
C458        H462   1.084       .  S
C459        C460   1.402       .  A
C459        C567   1.473       .  S
C460        H463   1.083       .  S
C464        C465   1.413       .  A
C464        C500   1.494       .  S
C465        C466   1.411       .  A
C465        H470   1.083       .  S
C466        C532   1.486       .  S
C467        C468   1.403       .  A
C467        H471   1.083       .  S
C468        C469   1.403       .  A
C468        C519   1.485       .  S
C469        H472   1.082       .  S
O473        V481   1.911       .  S
O473        C483   1.267       .  A
O474        V481   1.918       .  S
O474        C484   1.268       .  A
O475        V481   1.899       .  S
O475        C485   1.263       .  A
O476        V481   1.891       .  S
O476        C486   1.262   1_455  A
O477        V482   1.907       .  S
O477        C486   1.265       .  A
O478        V482   1.903       .  S
O478        C485   1.265   1_655  A
O479        V482   1.893       .  S
O479        C484   1.263   1_655  A
O480        V482   1.902       .  S
O480        C483   1.264   1_655  A
V481        V482   2.088   1_455  T
C483        C583   1.478   1_455  S
C484        C535   1.477       .  S
C485        C516   1.468       .  S
C486        C564   1.470       .  S
C487        C488   1.420       .  A
C487        C492   1.419       .  A
C487        C743   1.481       .  S
C488        C489   1.418   1_455  A
C488        C548   1.496       .  S
C489        C490   1.417   1_545  A
C489        C644   1.484       .  S
C490        C491   1.418   1_655  A
C490        C692   1.486       .  S
C491        C492   1.420   1_565  A
C491        C503   1.491       .  S
C492        C596   1.493       .  S
C493        C498   1.385       .  A
C493        C494   1.403   1_455  A
C493        S499   1.704       .  A
C494        C495   1.402   1_655  A
C494        H505   1.082       .  S
C495        C504   1.373   1_455  A
C495        C496   1.386       .  A
C496        C497   1.406       .  A
C497        C498   1.406       .  A
S499        C500   1.729       .  A
C501        H507   1.082       .  S
C503        C504   1.386   1_455  A
C504        H508   1.082       .  S
C509        C514   1.387       .  A
C509        C510   1.401       .  A
C509        S515   1.707       .  A
C510        C511   1.402       .  A
C510        H521   1.083       .  S
C511        C520   1.369       .  A
C511        C512   1.386       .  A
C512        C513   1.403       .  A
C512        S518   1.707       .  A
C513        C514   1.403       .  A
C513        H522   1.083   1_455  S
C514        C517   1.372       .  A
S515        C516   1.721       .  A
C516        C517   1.386       .  A
C517        H523   1.083   1_455  S
S518        C519   1.727       .  A
C519        C520   1.389       .  A
C520        H524   1.082       .  S
C525        C530   1.386       .  A
C525        C526   1.408       .  A
C525        S531   1.709       .  A
C526        C527   1.407       .  A
C526        H537   1.083       .  S
C527        C536   1.380       .  A
C527        C528   1.387       .  A
C528        C529   1.402       .  A
C528        S534   1.704   1_455  A
C529        C530   1.402       .  A
C529        H538   1.083   1_455  S
C530        C533   1.375       .  A
S531        C532   1.730       .  A
C532        C533   1.387       .  A
C533        H539   1.083       .  S
S534        C535   1.723   1_655  A
C535        C536   1.390       .  A
C536        H540   1.083       .  S
C541        C546   1.386   1_456  A
C541        C542   1.405       .  A
C541        S547   1.710       .  A
C542        C543   1.405       .  A
C542        H553   1.083       .  S
C543        C552   1.377       .  A
C543        C544   1.386   1_456  A
C544        C545   1.404       .  A
C545        C546   1.404       .  A
C548        C549   1.389   1_455  A
C549        H555   1.083       .  S
S550        C551   1.730       .  A
C552        H556   1.082       .  S
C557        C562   1.387   1_655  A
C557        C558   1.404       .  A
C557        S563   1.712       .  A
C558        C559   1.405       .  A
C558        H569   1.083       .  S
C559        C568   1.373       .  A
C559        C560   1.387   1_655  A
C560        C561   1.399       .  A
C560        S566   1.705       .  A
C561        C562   1.400       .  A
C561        H570   1.083       .  S
C562        C565   1.367       .  A
S563        C564   1.723       .  A
C564        C565   1.385   1_655  A
C565        H571   1.083       .  S
S566        C567   1.720   1_455  A
C567        C568   1.387       .  A
C568        H572   1.083       .  S
C573        C578   1.386   1_455  A
C573        C574   1.405       .  A
C573        S579   1.712       .  A
C574        C575   1.406       .  A
C574        H585   1.083       .  S
C575        C584   1.376       .  A
C575        C576   1.387   1_455  A
C576        C577   1.403       .  A
C576        S582   1.709       .  A
C577        C578   1.404       .  A
C577        H586   1.083       .  S
C578        C581   1.373       .  A
S579        C580   1.724   1_455  A
C580        C581   1.388       .  A
C581        H587   1.083       .  S
S582        C583   1.724       .  A
C583        C584   1.389   1_655  A
C584        H588   1.083       .  S
C589        C594   1.386       .  A
C589        C590   1.406       .  A
C589        S595   1.713       .  A
C590        C591   1.407       .  A
C590        H601   1.082       .  S
C591        C600   1.377       .  A
C591        C592   1.385   1_545  A
C592        C593   1.405       .  A
C593        C594   1.405   1_565  A
S595        C596   1.725       .  A
C597        H603   1.082       .  S
C599        C600   1.393   1_565  A
C600        H604   1.082       .  S
C605        C610   1.387       .  A
C605        C606   1.401   1_565  A
C605        S611   1.706   1_565  A
C606        C607   1.401   1_545  A
C606        H617   1.083       .  S
C607        C616   1.371       .  A
C607        C608   1.387       .  A
C608        C609   1.403       .  A
C608        S614   1.709       .  A
C609        C610   1.404       .  A
C609        H618   1.083       .  S
C610        C613   1.372       .  A
S611        C612   1.723   1_545  A
C612        C613   1.389       .  A
C613        H619   1.083       .  S
S614        C615   1.724       .  A
C615        C616   1.385       .  A
C616        H620   1.083   1_565  S
C621        C626   1.386       .  A
C621        C622   1.405   1_565  A
C621        S627   1.712   1_565  A
C622        C623   1.406   1_545  A
C622        H633   1.083       .  S
C623        C632   1.374       .  A
C623        C624   1.387       .  A
C624        C625   1.403       .  A
C624        S630   1.710       .  A
C625        C626   1.404       .  A
C625        H634   1.083       .  S
C626        C629   1.372       .  A
S627        C628   1.726   1_545  A
C628        C629   1.390       .  A
C629        H635   1.083       .  S
S630        C631   1.722       .  A
C631        C632   1.389       .  A
C632        H636   1.083   1_565  S
C637        C642   1.387   1_556  A
C637        C638   1.403       .  A
C637        S643   1.708       .  A
C638        C639   1.404       .  A
C638        H649   1.082       .  S
C639        C648   1.373       .  A
C639        C640   1.385   1_546  A
C640        C641   1.403       .  A
C641        C642   1.404   1_565  A
C644        C645   1.386       .  A
C645        H651   1.082   1_545  S
S646        C647   1.730   1_565  A
C648        H652   1.081       .  S
C653        C658   1.387   1_545  A
C653        C654   1.401       .  A
C653        S659   1.706       .  A
C654        C655   1.401       .  A
C654        H665   1.083       .  S
C655        C664   1.369       .  A
C655        C656   1.387   1_545  A
C656        C657   1.404       .  A
C656        S662   1.711       .  A
C657        C658   1.405       .  A
C657        H666   1.083       .  S
C658        C661   1.374       .  A
S659        C660   1.722       .  A
C660        C661   1.388   1_545  A
C661        H667   1.083       .  S
S662        C663   1.724   1_565  A
C663        C664   1.386       .  A
C664        H668   1.083       .  S
C669        C674   1.387       .  A
C669        C670   1.405       .  A
C669        S675   1.709       .  A
C670        C671   1.405       .  A
C670        H681   1.082       .  S
C671        C680   1.375       .  A
C671        C672   1.387   1_545  A
C672        C673   1.398       .  A
C672        S678   1.700       .  A
C673        C674   1.399   1_565  A
C673        H682   1.082       .  S
C674        C677   1.368   1_545  A
S675        C676   1.726       .  A
C676        C677   1.384   1_545  A
C677        H683   1.083       .  S
S678        C679   1.720   1_565  A
C679        C680   1.387       .  A
C680        H684   1.083       .  S
C685        C690   1.387       .  A
C685        C686   1.405       .  A
C685        S691   1.711       .  A
C686        C687   1.406       .  A
C686        H697   1.083       .  S
C687        C696   1.376       .  A
C687        C688   1.384       .  A
C688        C689   1.404       .  A
C689        C690   1.404       .  A
S691        C692   1.723       .  A
C693        H699   1.082       .  S
C695        C696   1.396       .  A
C696        H700   1.081       .  S
C701        C706   1.387       .  A
C701        C702   1.403       .  A
C701        S707   1.707       .  A
C702        C703   1.403       .  A
C702        H713   1.083       .  S
C703        C712   1.373       .  A
C703        C704   1.387       .  A
C704        C705   1.405       .  A
C704        S710   1.709       .  A
C705        C706   1.405       .  A
C705        H714   1.083       .  S
C706        C709   1.375       .  A
S707        C708   1.723       .  A
C708        C709   1.388       .  A
C709        H715   1.083       .  S
S710        C711   1.726       .  A
C711        C712   1.387       .  A
C712        H716   1.083       .  S
C717        C722   1.387       .  A
C717        C718   1.402       .  A
C717        S723   1.706       .  A
C718        C719   1.402       .  A
C718        H729   1.083       .  S
C719        C728   1.371       .  A
C719        C720   1.386       .  A
C720        C721   1.404       .  A
C720        S726   1.711       .  A
C721        C722   1.405       .  A
C721        H730   1.083       .  S
C722        C725   1.375       .  A
S723        C724   1.723       .  A
C724        C725   1.387       .  A
C725        H731   1.083       .  S
S726        C727   1.725       .  A
C727        C728   1.388       .  A
C728        H732   1.083       .  S
C733        C738   1.386       .  A
C733        C734   1.403       .  A
C733        S739   1.708       .  A
C734        C735   1.403       .  A
C734        H745   1.083       .  S
C735        C744   1.372       .  A
C735        C736   1.388       .  A
C736        C737   1.401       .  A
C737        C738   1.402       .  A
S739        C740   1.728       .  A
C741        H747   1.083       .  S
C743        C744   1.386       .  A
C744        H748   1.083       .  S
C749        C754   1.387       .  A
C749        C750   1.400       .  A
C749        S755   1.702       .  A
C750        C751   1.400       .  A
C750        H761   1.083       .  S
C751        C760   1.370       .  A
C751        C752   1.387       .  A
C752        C753   1.405       .  A
C752        S758   1.709       .  A
C753        C754   1.405       .  A
C753        H762   1.083       .  S
C754        C757   1.376       .  A
S755        C756   1.722       .  A
C756        C757   1.388       .  A
C757        H763   1.083       .  S
S758        C759   1.725       .  A
C759        C760   1.384       .  A
C760        H764   1.083       .  S
C765        C770   1.387       .  A
C765        C766   1.403       .  A
C765        S771   1.710       .  A
C766        C767   1.404       .  A
C766        H777   1.083       .  S
C767        C776   1.372       .  A
C767        C768   1.387       .  A
C768        C769   1.400       .  A
C768        S774   1.706       .  A
C769        C770   1.401       .  A
C769        H778   1.083       .  S
C770        C773   1.368       .  A
S771        C772   1.722       .  A
C772        C773   1.384       .  A
C773        H779   1.083       .  S
S774        C775   1.722       .  A
C775        C776   1.388       .  A
C776        H780   1.083       .  S
