geometry optimzed in LAMMPS
_audit_creation_date              2020-11-30 
_audit_creation_method            'lammps2cif' 
_symmetry_space_group_name_H-M    'P1' 
_symmetry_Int_Tables_number       1 
_symmetry_cell_setting            triclinic 
loop_ 
_symmetry_equiv_pos_as_xyz 
  x,y,z 
_cell_length_a                    46.14722474 
_cell_length_b                    45.581742334203916 
_cell_length_c                    86.09287001697099 
_cell_angle_alpha                 90.26355932580431 
_cell_angle_beta                  90.07758937963493 
_cell_angle_gamma                 117.97267914418666 
loop_ 
_atom_site_label 
_atom_site_type_symbol 
_atom_site_fract_x 
_atom_site_fract_y 
_atom_site_fract_z 
_atom_site_charge 
Zr1        Zr  0.60657067  0.27049665  0.01108114     2.17500
O2          O  0.57569586  0.23481576  0.03257166    -0.51300
O3          O  0.56651781  0.22917600  0.99356500    -0.74500
O4          O  0.56153264  0.28068406  0.02008698    -0.81300
O5          O  0.66913171  0.23755873  0.01370007    -0.83100
O6          O  0.57083679  0.33148942  0.01172421    -0.78700
O7          O  0.61811141  0.22701024  0.02141979    -0.90300
O8          O  0.58303398  0.24423429  0.96875303    -0.76300
O9          O  0.60113491  0.30135460  0.98993950    -0.85800
O10         O  0.63770143  0.26505942  0.99014731    -0.85500
O11         O  0.62847850  0.32666662  0.02073803    -0.72200
O12         O  0.66205028  0.29300484  0.02042165    -0.84400
Zr13       Zr  0.71010297  0.37590793  0.98743380     2.26400
Zr14       Zr  0.62389313  0.35754171  0.99918420     2.06300
Zr15       Zr  0.69322149  0.28881717  0.99910244     2.10000
Zr16       Zr  0.63303344  0.29663421  0.96926359     1.78800
O17         O  0.73394435  0.28445663  0.01557851    -0.93200
O18         O  0.59607198  0.30708934  0.95268252    -0.41000
O19         O  0.68895142  0.31997984  0.97778920    -0.77600
O20         O  0.65477098  0.35321086  0.97778362    -0.96300
O21         O  0.67904948  0.38065367  0.00842149    -0.89600
O22         O  0.71562422  0.34473738  0.00832394    -0.92400
C23         C  0.56305989  0.22442781  0.97881405     1.01300
C24         C  0.64206294  0.21996780  0.02084605     1.14300
C25         C  0.55357673  0.30415172  0.01889248     1.05000
O26         O  0.58568296  0.36039473  0.98048035    -0.94600
O27         O  0.65093769  0.41277309  0.98786824    -0.90300
O28         O  0.70251408  0.42381268  0.98090221    -0.83500
C29         C  0.67916968  0.43159150  0.98192125     1.11700
O30         O  0.66011871  0.32811838  0.05448410    -0.96600
Zr31       Zr  0.68438428  0.34933964  0.02916793     1.88900
O32         O  0.75044239  0.41799133  0.00452981    -0.73200
O33         O  0.61993847  0.39734881  0.01691026    -0.52500
O34         O  0.67598407  0.38852830  0.04543068    -0.97200
O35         O  0.72023491  0.33391399  0.04397893    -0.54400
O36         O  0.73471721  0.40163226  0.02932250    -0.73700
C37         C  0.75429410  0.42209215  0.01930691     0.98600
O38         O  0.73566653  0.40229908  0.96292455    -0.62500
O39         O  0.69280160  0.24868036  0.98019812    -0.57400
O40         O  0.75770437  0.36896315  0.98065208    -0.94000
O41         O  0.74668083  0.31632239  0.98676672    -0.92500
O42         O  0.64603650  0.26016355  0.95325837    -0.92800
O43         O  0.65595592  0.32027943  0.94410100    -0.91600
C44         C  0.76524755  0.34519220  0.98112602     1.17500
H45         H  0.62998362  0.24248892  0.98737745     0.33400
H46         H  0.65392684  0.36628135  0.96915043     0.44300
H47         H  0.73825126  0.35299641  0.01130227     0.37800
H48         H  0.61601977  0.32780083  0.02946031     0.34300
H49         H  0.58760826  0.28862541  0.94502726     0.26000
H50         H  0.60042381  0.39914639  0.01334168     0.32000
H51         H  0.67069030  0.40192945  0.03805299     0.37900
H52         H  0.64060349  0.24036140  0.95970994     0.32400
H53         H  0.70215643  0.26172928  0.97064680     0.31200
H54         H  0.73866546  0.26777755  0.01035212     0.32900
H55         H  0.74273607  0.34919686  0.04045537     0.31900
H56         H  0.67913975  0.33630841  0.94633160     0.35900
H57         H  0.73878487  0.38536595  0.95697201     0.28600
H58         H  0.55251415  0.22325646  0.02908661     0.32800
H59         H  0.67807244  0.33930993  0.06214811     0.35700
H60         H  0.70985696  0.24300029  0.98391460     0.28300
H61         H  0.71841829  0.40449497  0.95697611     0.41200
H62         H  0.59719067  0.36467769  0.97039151     0.31200
H63         H  0.57697157  0.30257803  0.95933589     0.38900
H64         H  0.71576959  0.31191898  0.03980058     0.30700
H65         H  0.61337158  0.38577145  0.02700384     0.30800
H66         H  0.57640875  0.24996029  0.04101914     0.31000
Zr67       Zr  0.61136147  0.28167216  0.48794946     2.17500
O68         O  0.57829771  0.25418164  0.46508720    -0.51300
O69         O  0.57181145  0.24024287  0.50513289    -0.74500
O70         O  0.62098108  0.23558797  0.47916654    -0.81300
O71         O  0.57662558  0.34320055  0.48767967    -0.83100
O72         O  0.66963105  0.24378666  0.48939694    -0.78700
O73         O  0.56533354  0.29104358  0.48015114    -0.90300
O74         O  0.58982622  0.25586462  0.52983471    -0.76300
O75         O  0.64251720  0.27680361  0.50904685    -0.85800
O76         O  0.60686313  0.31358455  0.50896952    -0.85500
O77         O  0.66640667  0.30321794  0.47821115    -0.72200
O78         O  0.63322392  0.33759029  0.47855636    -0.84400
Zr79       Zr  0.71637728  0.38711708  0.51156904     2.26400
Zr80       Zr  0.69761282  0.29964481  0.49973012     2.06300
Zr81       Zr  0.63001941  0.36951778  0.50002109     2.10000
Zr82       Zr  0.63836422  0.30936865  0.52976133     1.78800
O83         O  0.62532712  0.40915196  0.48269741    -0.93200
O84         O  0.64916234  0.27421528  0.54759786    -0.41000
O85         O  0.66145207  0.36597140  0.52139363    -0.77600
O86         O  0.69388158  0.33120215  0.52118579    -0.96300
O87         O  0.72048539  0.35523537  0.49052987    -0.89600
O88         O  0.68494215  0.39175831  0.49064881    -0.92400
C89         C  0.56940983  0.23581213  0.51987037     1.01300
C90         C  0.55801679  0.31498044  0.48133425     1.14300
C91         C  0.64340240  0.22676661  0.48146858     1.05000
O92         O  0.70860010  0.26551931  0.51805783    -0.94600
O93         O  0.75203568  0.32684432  0.51096985    -0.90300
O94         O  0.76243544  0.37809140  0.51952029    -0.83500
C95         C  0.77017517  0.35455881  0.51783337     1.11700
O96         O  0.66557915  0.33566247  0.44448294    -0.96600
Zr97       Zr  0.68865908  0.35947268  0.46978460     1.88900
O98         O  0.75739861  0.42679283  0.49409052    -0.73200
O99         O  0.73364210  0.29569571  0.48009804    -0.52500
O100        O  0.72555187  0.34755173  0.45387421    -0.97200
O101        O  0.67674555  0.39776975  0.45472219    -0.54400
O102        O  0.74119303  0.40869881  0.46943306    -0.73700
C103        C  0.76150982  0.42914503  0.47930305     0.98600
O104        O  0.74662471  0.41485107  0.53506116    -0.62500
O105        O  0.59203131  0.37170398  0.51905016    -0.57400
O106        O  0.70880339  0.43513843  0.51858882    -0.94000
O107        O  0.65763278  0.42478871  0.51114221    -0.92500
O108        O  0.59889881  0.32153834  0.54328513    -0.92800
O109        O  0.65895052  0.33358776  0.55526508    -0.91600
C110        C  0.68583426  0.44342389  0.51721293     1.17500
H111        H  0.58426931  0.30557915  0.51198819     0.33400
H112        H  0.70682523  0.33022350  0.52981741     0.44300
H113        H  0.69314004  0.41460602  0.48759735     0.37800
H114        H  0.66719829  0.29010616  0.46954406     0.34300
H115        H  0.63029186  0.26533050  0.55481621     0.26000
H116        H  0.74012130  0.27945704  0.48434084     0.32000
H117        H  0.74273230  0.34878590  0.46114363     0.37900
H118        H  0.58563936  0.30146041  0.54952157     0.32400
H119        H  0.60563533  0.38228653  0.52836084     0.31200
H120        H  0.60847024  0.41387999  0.48750359     0.32900
H121        H  0.69824979  0.41751145  0.45302081     0.31900
H122        H  0.68270518  0.34824756  0.55371048     0.35900
H123        H  0.76019486  0.43846099  0.53221592     0.28600
H124        H  0.56652581  0.23024555  0.46763942     0.32800
H125        H  0.68010324  0.35189686  0.43674473     0.35700
H126        H  0.58617003  0.38852191  0.51497782     0.28300
H127        H  0.72997458  0.41470523  0.54234865     0.41200
H128        H  0.68988812  0.25713674  0.52532944     0.31200
H129        H  0.64599999  0.25473804  0.54127548     0.38900
H130        H  0.66513751  0.40555600  0.46195262     0.30700
H131        H  0.71922262  0.28410238  0.47115347     0.30800
H132        H  0.59422841  0.25613689  0.45694736     0.31000
N133        N  0.83333719  0.01140309  0.72730428    -0.36600
N134        N  0.80710362  0.95828792  0.75017531    -0.57200
N135        N  0.82685648  0.00789126  0.77477288    -0.36600
N136        N  0.85716748  0.06078377  0.75195029    -0.57200
C137        C  0.82643031  0.98471956  0.71816510     0.27000
C138        C  0.85332842  0.03877551  0.71913439     0.27000
C139        C  0.81952365  0.98021826  0.78313387     0.27000
C140        C  0.84485052  0.03430635  0.78407169     0.27000
C141        C  0.79441089  0.94000299  0.73715168     0.35600
C142        C  0.79209755  0.93806631  0.76228683     0.35600
C143        C  0.86318839  0.08107424  0.73962386     0.35600
C144        C  0.85915761  0.07914587  0.76465902     0.35600
C145        C  0.84211500  0.99523489  0.70398773    -0.21900
C146        C  0.85916428  0.02935540  0.70461746    -0.21900
C147        C  0.83294852  0.98924646  0.79791488    -0.21900
C148        C  0.84879142  0.02337211  0.79852324    -0.21900
C149        C  0.77140789  0.90794010  0.74100307    -0.22900
C150        C  0.76995423  0.90671335  0.75693474    -0.22900
C151        C  0.86931395  0.11245923  0.74453908    -0.22900
C152        C  0.86674672  0.11123434  0.76040755    -0.22900
C153        C  0.80463958  0.95131474  0.72187304    -0.18300
C154        C  0.86448637  0.07203681  0.72403160    -0.18300
C155        C  0.85636004  0.06798342  0.78011439    -0.18300
C156        C  0.79956110  0.94706833  0.77809697    -0.18300
H157        H  0.84112886  0.97991931  0.69414624     0.14600
H158        H  0.87382696  0.04541734  0.69535692     0.14600
H159        H  0.83138899  0.97294465  0.80733961     0.14600
H160        H  0.86174545  0.03842988  0.80848018     0.14600
H161        H  0.75735836  0.88746712  0.73316865     0.12900
H162        H  0.75449823  0.88514521  0.76377942     0.12900
H163        H  0.87496552  0.13400077  0.73744428     0.12900
H164        H  0.87018020  0.13168038  0.76795253     0.12900
H165        H  0.82179218  0.01107922  0.73768833     0.26200
H166        H  0.81706165  0.00877145  0.76401733     0.26200
N167        N  0.14576269  0.19937974  0.75032464    -0.36600
N168        N  0.17308149  0.17356334  0.72683788    -0.57200
N169        N  0.19947512  0.14906790  0.75119568    -0.36600
N170        N  0.16881779  0.17142552  0.77461924    -0.57200
C171        C  0.12973169  0.20100035  0.73744887     0.27000
C172        C  0.12858749  0.20096452  0.76273375     0.27000
C173        C  0.20516004  0.13489187  0.73853066     0.27000
C174        C  0.20171917  0.13256400  0.76378372     0.27000
C175        C  0.16411271  0.19210037  0.71779365     0.35600
C176        C  0.19375460  0.16680064  0.71826696     0.35600
C177        C  0.16017919  0.19076445  0.78335089     0.35600
C178        C  0.18752862  0.16307809  0.78379813     0.35600
C179        C  0.10204995  0.20357888  0.74173071    -0.21900
C180        C  0.10133528  0.20356592  0.75770052    -0.21900
C181        C  0.21118981  0.10911730  0.74310908    -0.21900
C182        C  0.20891967  0.10758072  0.75905256    -0.21900
C183        C  0.17914033  0.19714861  0.70341300    -0.22900
C184        C  0.19791538  0.18106992  0.70370784    -0.22900
C185        C  0.17363865  0.19490534  0.79811212    -0.22900
C186        C  0.19082707  0.17716354  0.79842148    -0.22900
C187        C  0.14060078  0.20226798  0.72199648    -0.18300
C188        C  0.13818149  0.20237817  0.77843938    -0.18300
C189        C  0.19976212  0.14108500  0.77943319    -0.18300
C190        C  0.20706672  0.14601247  0.72307224    -0.18300
H191        H  0.08430427  0.20549193  0.73414113     0.14600
H192        H  0.08293034  0.20543876  0.76480187     0.14600
H193        H  0.21693904  0.09325632  0.73574131     0.14600
H194        H  0.21268601  0.09036523  0.76633565     0.14600
H195        H  0.17663246  0.21073591  0.69367681     0.12900
H196        H  0.21267579  0.17977696  0.69423491     0.12900
H197        H  0.17104856  0.20888719  0.80771531     0.12900
H198        H  0.20413536  0.17480258  0.80828743     0.12900
H199        H  0.16906451  0.20113814  0.75066312     0.26200
H200        H  0.19805654  0.17115186  0.75134451     0.26200
N201        N  0.00945381  0.81073713  0.77117937    -0.36600
N202        N  0.95997239  0.79071655  0.74714055    -0.57200
N203        N  0.01104066  0.81281714  0.72345612    -0.36600
N204        N  0.06064837  0.83613242  0.74757118    -0.57200
C205        C  0.98272200  0.80467922  0.77980979     0.27000
C206        C  0.03615086  0.82930527  0.78004413     0.27000
C207        C  0.98479790  0.80958282  0.71513567     0.27000
C208        C  0.03812022  0.83330944  0.71536471     0.27000
C209        C  0.94008331  0.77705744  0.75945533     0.35600
C210        C  0.94106724  0.77846718  0.73433447     0.35600
C211        C  0.07953100  0.84073624  0.76026870     0.35600
C212        C  0.08023570  0.84113544  0.73514231     0.35600
C213        C  0.99260187  0.81920732  0.79435971    -0.21900
C214        C  0.02627253  0.83469490  0.79451403    -0.21900
C215        C  0.99528236  0.82805860  0.70164140    -0.21900
C216        C  0.02893660  0.84309565  0.70180044    -0.21900
C217        C  0.90844771  0.75590977  0.75444439    -0.22900
C218        C  0.90907793  0.75677359  0.73851326    -0.22900
C219        C  0.11126198  0.84865143  0.75591169    -0.22900
C220        C  0.11163768  0.84857869  0.73997966    -0.22900
C221        C  0.94960932  0.78550077  0.77512204    -0.18300
C222        C  0.06920254  0.84050876  0.77570944    -0.18300
C223        C  0.07089405  0.84266213  0.71965239    -0.18300
C224        C  0.95157647  0.78936454  0.71906696    -0.18300
H225        H  0.97718498  0.81885803  0.80389202     0.14600
H226        H  0.04171417  0.84846061  0.80420283     0.14600
H227        H  0.98023426  0.83066203  0.69265660     0.14600
H228        H  0.04483032  0.85962983  0.69297689     0.14600
H229        H  0.88701283  0.74179588  0.76151443     0.12900
H230        H  0.88819383  0.74356748  0.73089900     0.12900
H231        H  0.13209585  0.85439009  0.76342312     0.12900
H232        H  0.13286559  0.85427032  0.73282587     0.12900
H233        H  0.00948756  0.80012551  0.76047809     0.26200
H234        H  0.01037252  0.79916654  0.73323474     0.26200
C235        C  0.98190415  0.32653372  0.59818560     0.02300
C236        C  0.01629151  0.33853102  0.59684914     0.02300
C237        C  0.03236186  0.32802974  0.60761380    -0.18300
C238        C  0.01514386  0.30555131  0.61936348     0.02300
C239        C  0.98094291  0.29334681  0.62066580     0.02300
C240        C  0.96467555  0.30393540  0.61009615    -0.18300
H241        H  0.93835691  0.29432349  0.61109121     0.04300
H242        H  0.05867414  0.33734781  0.60681635     0.04300
C243        C  0.32632359  0.98592442  0.59766601     0.02300
C244        C  0.34277328  0.02104742  0.59825361     0.02300
C245        C  0.33460930  0.03753276  0.60988912    -0.18300
C246        C  0.31013577  0.01987999  0.62077787     0.02300
C247        C  0.29345604  0.98478667  0.62007391     0.02300
C248        C  0.30160123  0.96828506  0.60849274    -0.18300
H249        H  0.28926935  0.94134346  0.60823049     0.04300
H250        H  0.34680136  0.06446661  0.61022201     0.04300
C251        C  0.71023014  0.68010885  0.90500494     0.02300
C252        C  0.69298566  0.69879108  0.90642096     0.02300
C253        C  0.69901318  0.72421942  0.89568662    -0.18300
C254        C  0.72134511  0.73100960  0.88346181     0.02300
C255        C  0.73910856  0.71287518  0.88230724     0.02300
C256        C  0.73318368  0.68759080  0.89299377    -0.18300
H257        H  0.74695547  0.67384393  0.89206453     0.04300
H258        H  0.68511140  0.73785447  0.89644133     0.04300
C259        C  0.69102281  0.71023671  0.59031969     0.02300
C260        C  0.70508309  0.68889295  0.59268434     0.02300
C261        C  0.72589249  0.69434782  0.60551171    -0.18300
C262        C  0.73290499  0.72047265  0.61597853     0.02300
C263        C  0.71747356  0.74063359  0.61400796     0.02300
C264        C  0.69725114  0.73569698  0.60111157    -0.18300
H265        H  0.68549028  0.75128675  0.59969333     0.04300
H266        H  0.73786821  0.67897657  0.60697760     0.04300
C267        C  0.32003102  0.00641145  0.90790203     0.02300
C268        C  0.30614593  0.97151402  0.90603988     0.02300
C269        C  0.28350612  0.95585559  0.89400552    -0.18300
C270        C  0.27491532  0.97399475  0.88365399     0.02300
C271        C  0.28853988  0.00874718  0.88544675     0.02300
C272        C  0.31100887  0.02460086  0.89754238    -0.18300
H273        H  0.32181926  0.05135613  0.89879955     0.04300
H274        H  0.27250571  0.92910834  0.89258421     0.04300
C275        C  0.01609056  0.35509588  0.89718837     0.02300
C276        C  0.98144363  0.34044550  0.89767029     0.02300
C277        C  0.96265339  0.31510560  0.88703621    -0.18300
C278        C  0.97761376  0.30374021  0.87609941     0.02300
C279        C  0.01219405  0.31824775  0.87569060     0.02300
C280        C  0.03101408  0.34388487  0.88610189    -0.18300
H281        H  0.05754822  0.35489777  0.88569949     0.04300
H282        H  0.93609534  0.30363227  0.88748526     0.04300
Zr283      Zr  0.39251493  0.71743073  0.51148563     2.17500
O284        O  0.42219252  0.75061612  0.53402990    -0.51300
O285        O  0.43097209  0.75792431  0.49319622    -0.74500
O286        O  0.44054160  0.71059180  0.51809389    -0.81300
O287        O  0.32894012  0.74756702  0.51508432    -0.83100
O288        O  0.43203230  0.66014336  0.50932075    -0.78700
O289        O  0.38162918  0.76155373  0.52145499    -0.90300
O290        O  0.41405981  0.73837632  0.46878825    -0.76300
O291        O  0.39647671  0.68515857  0.49058145    -0.85800
O292        O  0.35916405  0.72032766  0.49098445    -0.85500
O293        O  0.37247482  0.66233365  0.52184661    -0.72200
O294        O  0.33778604  0.69363546  0.52173984    -0.84400
Zr295      Zr  0.28865740  0.60792936  0.48951035     2.26400
Zr296      Zr  0.37601350  0.63019490  0.50056023     2.06300
Zr297      Zr  0.30452221  0.69545020  0.50093840     2.10000
Zr298      Zr  0.36280944  0.68764657  0.47024178     1.78800
O299        O  0.26367137  0.69363876  0.51931356    -0.93200
O300        O  0.39738559  0.67720864  0.45204075    -0.41000
O301        O  0.30793073  0.66323185  0.47970393    -0.77600
O302        O  0.34342266  0.63177121  0.47917113    -0.96300
O303        O  0.32120517  0.60519480  0.51032809    -0.89600
O304        O  0.28371655  0.64004048  0.51025121    -0.92400
C305        C  0.43423574  0.75994650  0.47833588     1.01300
C306        C  0.35657080  0.76682792  0.52152531     1.14300
C307        C  0.44979621  0.68835858  0.51578482     1.05000
O308        O  0.41245951  0.62250574  0.48250941    -0.94600
O309        O  0.35176338  0.57480828  0.48985188    -0.90300
O310        O  0.30062761  0.56295597  0.48170021    -0.83500
C311        C  0.32438598  0.55584013  0.48320010     1.11700
O312        O  0.33951804  0.66050668  0.55638114    -0.96600
Zr313      Zr  0.31675776  0.63781319  0.53088131     1.88900
O314        O  0.24872199  0.56809606  0.50741732    -0.73200
O315        O  0.38176558  0.59692863  0.52124736    -0.52500
O316        O  0.33025347  0.59980824  0.54517753    -0.97200
O317        O  0.28056949  0.65126356  0.54660655    -0.54400
O318        O  0.26511299  0.58685791  0.53196675    -0.73700
C319        C  0.24481238  0.56584125  0.52222185     0.98600
O320        O  0.25419394  0.57485075  0.46798309    -0.62500
O321        O  0.29806073  0.73452235  0.48386005    -0.57400
O322        O  0.24372264  0.61680648  0.47989464    -0.94000
O323        O  0.25245400  0.66804228  0.48764349    -0.92500
O324        O  0.34710010  0.72544014  0.45722898    -0.92800
O325        O  0.33721813  0.66453710  0.44526574    -0.91600
C326        C  0.23548338  0.64008536  0.48076105     1.17500
H327        H  0.36616874  0.74270441  0.48792688     0.33400
H328        H  0.34456768  0.61869393  0.47061732     0.44300
H329        H  0.26112394  0.63163807  0.51332308     0.37800
H330        H  0.38634772  0.66264202  0.53032914     0.34300
H331        H  0.40456848  0.69547050  0.44440888     0.26000
H332        H  0.39638217  0.58860630  0.51686814     0.32000
H333        H  0.31151655  0.58785780  0.55227686     0.37900
H334        H  0.36586258  0.73905406  0.45040679     0.32400
H335        H  0.28261948  0.74033061  0.48938371     0.31200
H336        H  0.25984309  0.71253934  0.51643011     0.32900
H337        H  0.25861584  0.63919660  0.54171671     0.31900
H338        H  0.31883916  0.64246970  0.44778729     0.35900
H339        H  0.26952936  0.57578984  0.45973289     0.28600
H340        H  0.44505903  0.76448258  0.53052762     0.32800
H341        H  0.32399889  0.64477284  0.56399851     0.35700
H342        H  0.31933324  0.75506718  0.48428302     0.28300
H343        H  0.24352987  0.55155347  0.47161332     0.41200
H344        H  0.42037677  0.64192278  0.47553811     0.31200
H345        H  0.41750719  0.68211018  0.45801109     0.38900
H346        H  0.28758826  0.67496698  0.54446051     0.30700
H347        H  0.39515138  0.61301407  0.52939353     0.30800
H348        H  0.42333240  0.73471941  0.54149399     0.31000
Zr349      Zr  0.28880280  0.65749232  0.98877503     2.17500
O350        O  0.25673731  0.66459659  0.96794077    -0.51300
O351        O  0.24639078  0.65517987  0.00641711    -0.74500
O352        O  0.24542658  0.60500743  0.97886132    -0.81300
O353        O  0.34971577  0.75061802  0.98813465    -0.83100
O354        O  0.25610349  0.56308157  0.98586343    -0.78700
O355        O  0.29901507  0.71260065  0.97999820    -0.90300
O356        O  0.25932035  0.64752360  0.03095744    -0.76300
O357        O  0.28417108  0.61972239  0.00884822    -0.85800
O358        O  0.31788550  0.69031995  0.01059964    -0.85500
O359        O  0.31276152  0.62476094  0.97817874    -0.72200
O360        O  0.34427066  0.68936050  0.97995584    -0.84400
Zr361      Zr  0.39438383  0.65233831  0.01273597     2.26400
Zr362      Zr  0.30913789  0.58799182  0.99880701     2.06300
Zr363      Zr  0.37331725  0.72136734  0.00211257     2.10000
Zr364      Zr  0.31394570  0.65264877  0.03049019     1.78800
O365        O  0.41555966  0.76498209  0.98658923    -0.93200
O366        O  0.28161509  0.60386108  0.04625252    -0.41000
O367        O  0.36994325  0.68501676  0.02273342    -0.77600
O368        O  0.33835320  0.61978111  0.02123999    -0.96300
O369        O  0.36513179  0.61928564  0.99088815    -0.89600
O370        O  0.39858765  0.68968796  0.99251546    -0.92400
C371        C  0.24007881  0.65028693  0.02099216     1.01300
C372        C  0.32249068  0.74256271  0.98114190     1.14300
C373        C  0.23822223  0.57416759  0.97929020     1.05000
O374        O  0.26939629  0.54394499  0.01504235    -0.94600
O375        O  0.33487448  0.55828122  0.01079434    -0.90300
O376        O  0.38444242  0.59635861  0.02027578    -0.83500
C377        C  0.36164518  0.56625348  0.01824643     1.11700
O378        O  0.34909588  0.65719766  0.94471219    -0.96600
Zr379      Zr  0.36904950  0.65655809  0.97088194     1.88900
O380        O  0.43700356  0.65379683  0.99529712    -0.73200
O381        O  0.31113493  0.54964918  0.97956001    -0.52500
O382        O  0.35837973  0.60575607  0.95698972    -0.97200
O383        O  0.40470220  0.70556293  0.95589747    -0.54400
O384        O  0.42143553  0.65670055  0.97060270    -0.73700
C385        C  0.44163966  0.65561637  0.98051759     0.98600
O386        O  0.42831641  0.65360672  0.03474799    -0.62500
O387        O  0.37084624  0.76077648  0.02064213    -0.57400
O388        O  0.43672618  0.70498217  0.02378138    -0.94000
O389        O  0.42410795  0.74523109  0.01615789    -0.92500
O390        O  0.31902574  0.70010314  0.04563528    -0.92800
O391        O  0.33862039  0.65447300  0.05574621    -0.91600
C392        C  0.44252115  0.73550668  0.02314255     1.17500
H393        H  0.30899645  0.70451326  0.01383337     0.33400
H394        H  0.33710901  0.60528981  0.02964383     0.44300
H395        H  0.42129073  0.70425658  0.98993905     0.37800
H396        H  0.30077091  0.61242109  0.96909032     0.34300
H397        H  0.27215873  0.61185589  0.05454613     0.26000
H398        H  0.29329681  0.52763065  0.98257858     0.32000
H399        H  0.37751477  0.61204573  0.95009338     0.37900
H400        H  0.34286133  0.71559330  0.04588405     0.32400
H401        H  0.38807636  0.78276663  0.01719863     0.31200
H402        H  0.42226955  0.78562299  0.99271536     0.32900
H403        H  0.42604136  0.71553821  0.96143021     0.31900
H404        H  0.36242598  0.66411842  0.05365835     0.35900
H405        H  0.41306813  0.63787756  0.04244053     0.28600
H406        H  0.23379989  0.65404918  0.97170167     0.32800
H407        H  0.36506212  0.65535395  0.93762496     0.35700
H408        H  0.34999458  0.76120387  0.01842885     0.28300
H409        H  0.44153292  0.64312385  0.03093378     0.41200
H410        H  0.27832317  0.54985694  0.02571924     0.31200
H411        H  0.26261586  0.58955705  0.03960879     0.38900
H412        H  0.39593352  0.72137062  0.95772675     0.30700
H413        H  0.30330817  0.55495746  0.96978940     0.30800
H414        H  0.25682202  0.65039039  0.95922282     0.31000
N415        N  0.98995192  0.18917961  0.27237692    -0.36600
N416        N  0.94080636  0.17084237  0.24806286    -0.57200
N417        N  0.99229363  0.19942901  0.22465547    -0.36600
N418        N  0.04137279  0.21390568  0.24898041    -0.57200
C419        C  0.96240931  0.16985932  0.28047931     0.27000
C420        C  0.01585313  0.19195840  0.28088157     0.27000
C421        C  0.96578438  0.18206967  0.21546282     0.27000
C422        C  0.01926863  0.20665043  0.21601257     0.27000
C423        C  0.92113260  0.16491114  0.26056193     0.35600
C424        C  0.92241154  0.16873714  0.23545632     0.35600
C425        C  0.06015955  0.22405624  0.26195922     0.35600
C426        C  0.06120382  0.23039301  0.23701053     0.35600
C427        C  0.97097374  0.16048110  0.29433994    -0.21900
C428        C  0.00463134  0.17439201  0.29458858    -0.21900
C429        C  0.97611294  0.17881297  0.20071785    -0.21900
C430        C  0.00986712  0.19446981  0.20104943    -0.21900
C431        C  0.89022377  0.15941268  0.25585841    -0.22900
C432        C  0.89097808  0.16160444  0.23995524    -0.22900
C433        C  0.09199043  0.24705788  0.25820197    -0.22900
C434        C  0.09265473  0.25104857  0.24239642    -0.22900
C435        C  0.92983832  0.16145377  0.27597325    -0.18300
C436        C  0.04940689  0.21148047  0.27703727    -0.18300
C437        C  0.05213865  0.22477327  0.22116816    -0.18300
C438        C  0.93258403  0.16993469  0.21988318    -0.18300
H439        H  0.95469452  0.14515615  0.30337028     0.14600
H440        H  0.01917771  0.17192473  0.30386536     0.14600
H441        H  0.96094769  0.16641257  0.19073093     0.14600
H442        H  0.02567044  0.19642036  0.19139792     0.14600
H443        H  0.86908090  0.15368305  0.26308064     0.12900
H444        H  0.87057546  0.15786580  0.23252323     0.12900
H445        H  0.11265715  0.25952538  0.26601164     0.12900
H446        H  0.11396136  0.26701144  0.23561141     0.12900
H447        H  0.99118911  0.20260935  0.26246199     0.26200
H448        H  0.99213536  0.20838577  0.23575702     0.26200
N449        N  0.82668649  0.81262165  0.22741515    -0.36600
N450        N  0.80252873  0.84168658  0.25095215    -0.57200
N451        N  0.82573108  0.81379164  0.27500964    -0.36600
N452        N  0.85327836  0.78793973  0.25157376    -0.57200
C453        C  0.82034561  0.83360830  0.21871609     0.27000
C454        C  0.84703657  0.80488859  0.21909322     0.27000
C455        C  0.81802988  0.83409951  0.28355883     0.27000
C456        C  0.84528896  0.80600443  0.28387367     0.27000
C457        C  0.78793161  0.84601049  0.23819480     0.35600
C458        C  0.78705908  0.84631708  0.26330440     0.35600
C459        C  0.85784293  0.77234455  0.23916634     0.35600
C460        C  0.85719413  0.77289369  0.26428430     0.35600
C461        C  0.83677517  0.83919989  0.20468366    -0.21900
C462        C  0.85359553  0.82100008  0.20491131    -0.21900
C463        C  0.83283888  0.83929193  0.29804729    -0.21900
C464        C  0.85010208  0.82154182  0.29824582    -0.21900
C465        C  0.76310527  0.85339335  0.24246168    -0.22900
C466        C  0.76261520  0.85367637  0.25838770    -0.22900
C467        C  0.86478569  0.74734356  0.24399760    -0.22900
C468        C  0.86438299  0.74769750  0.25994665    -0.22900
C469        C  0.79864711  0.84625146  0.22281842    -0.18300
C470        C  0.85811425  0.78206544  0.22360983    -0.18300
C471        C  0.85674145  0.78325355  0.27971496    -0.18300
C472        C  0.79615483  0.84606918  0.27893683    -0.18300
H473        H  0.83649985  0.85460568  0.19521676     0.14600
H474        H  0.86879386  0.81964682  0.19566021     0.14600
H475        H  0.83103028  0.85396971  0.30755172     0.14600
H476        H  0.86416135  0.81984126  0.30795315     0.14600
H477        H  0.74723076  0.85841638  0.23489236     0.12900
H478        H  0.74629562  0.85893685  0.26552235     0.12900
H479        H  0.86995402  0.73084288  0.23679492     0.12900
H480        H  0.86918496  0.73151843  0.26748627     0.12900
H481        H  0.81480832  0.80123817  0.23762741     0.26200
H482        H  0.81495348  0.80255556  0.26452659     0.26200
C483        C  0.67893009  0.01599601  0.40083913     0.02300
C484        C  0.66288845  0.98085248  0.40072495     0.02300
C485        C  0.67172304  0.96404448  0.38952592    -0.18300
C486        C  0.69589654  0.98132769  0.37840356     0.02300
C487        C  0.71212391  0.01645576  0.37856720     0.02300
C488        C  0.70350898  0.03335353  0.38982213    -0.18300
H489        H  0.71570103  0.06029053  0.38985001     0.04300
H490        H  0.65943252  0.93710326  0.38938744     0.04300
N491        N  0.18900853  0.03027681  0.25017311    -0.36600
N492        N  0.16839454  0.97894026  0.22613178    -0.57200
N493        N  0.14733114  0.92870647  0.25001958    -0.36600
N494        N  0.17244484  0.98035652  0.27404467    -0.57200
C495        C  0.20281330  0.04899161  0.23746698     0.27000
C496        C  0.20317708  0.04968572  0.26276286     0.27000
C497        C  0.14383304  0.90984968  0.23725794     0.27000
C498        C  0.14727563  0.91080583  0.26251517     0.27000
C499        C  0.17498858  0.00554033  0.21713781     0.35600
C500        C  0.15131606  0.95178832  0.21713407     0.35600
C501        C  0.17855302  0.00676747  0.28322919     0.35600
C502        C  0.15785977  0.95325728  0.28314943     0.35600
C503        C  0.22586021  0.08066736  0.24205862    -0.21900
C504        C  0.22598576  0.08114295  0.25801323    -0.21900
C505        C  0.14129361  0.87953561  0.24172459    -0.21900
C506        C  0.14345139  0.88013871  0.25766185    -0.21900
C507        C  0.16224251  0.99527226  0.20234629    -0.22900
C508        C  0.14710909  0.96121510  0.20236278    -0.22900
C509        C  0.16815016  0.99644295  0.29825833    -0.22900
C510        C  0.15514798  0.96251659  0.29822207    -0.22900
C511        C  0.19378579  0.03899695  0.22185179    -0.18300
C512        C  0.19518541  0.04020236  0.27842643    -0.18300
C513        C  0.14814796  0.92036706  0.27821811    -0.18300
C514        C  0.14157698  0.91874717  0.22173919    -0.18300
H515        H  0.24091563  0.10141615  0.23467728     0.14600
H516        H  0.24122261  0.10226363  0.26528643     0.14600
H517        H  0.13811657  0.85902587  0.23428668     0.14600
H518        H  0.14207266  0.86013537  0.26487284     0.14600
H519        H  0.16374234  0.01068611  0.19254027     0.12900
H520        H  0.13473310  0.94527162  0.19255429     0.12900
H521        H  0.16988890  0.01173600  0.30823124     0.12900
H522        H  0.14485205  0.94650595  0.30815776     0.12900
H523        H  0.16858020  0.00696332  0.25026197     0.26200
H524        H  0.14595353  0.95078729  0.25031064     0.26200
C525        C  0.65498887  0.97120984  0.10229026     0.02300
C526        C  0.66927143  0.00617542  0.10094190     0.02300
C527        C  0.69450464  0.02627916  0.11133098    -0.18300
C528        C  0.70620034  0.01245374  0.12270987     0.02300
C529        C  0.69191561  0.97752285  0.12394458     0.02300
C530        C  0.66663526  0.95747446  0.11374405    -0.18300
H531        H  0.65607033  0.93068782  0.11464743     0.04300
H532        H  0.70551425  0.05308490  0.11042697     0.04300
C533        C  0.29755305  0.31094510  0.40503296     0.02300
C534        C  0.31681968  0.29430784  0.40386284     0.02300
C535        C  0.31033461  0.27153545  0.39162913    -0.18300
C536        C  0.28552243  0.26518467  0.38068005     0.02300
C537        C  0.26605669  0.28149013  0.38200465     0.02300
C538        C  0.27258524  0.30443664  0.39406639    -0.18300
H539        H  0.25792161  0.31725760  0.39499077     0.04300
H540        H  0.32465277  0.25837084  0.39062508     0.04300
C541        C  0.31382881  0.32380654  0.10167151     0.02300
C542        C  0.32690121  0.30126535  0.10220179     0.02300
C543        C  0.31559218  0.27624235  0.11347641    -0.18300
C544        C  0.29157920  0.27303136  0.12427636     0.02300
C545        C  0.27894810  0.29594969  0.12399623     0.02300
C546        C  0.28991704  0.32073329  0.11258460    -0.18300
H547        H  0.28036813  0.33840251  0.11246742     0.04300
H548        H  0.32507096  0.25850728  0.11359698     0.04300
C549        C  0.98723973  0.64970503  0.40202387     0.02300
C550        C  0.02190334  0.66550227  0.40251300     0.02300
C551        C  0.03986741  0.69085178  0.39187060    -0.18300
C552        C  0.02400757  0.70022230  0.38054463     0.02300
C553        C  0.98932748  0.68424990  0.38004493     0.02300
C554        C  0.97144404  0.65915524  0.39070649    -0.18300
H555        H  0.94485551  0.64754685  0.39048986     0.04300
H556        H  0.06645792  0.70257268  0.39204349     0.04300
C557        C  0.01499429  0.67027553  0.09316694     0.02300
C558        C  0.98019417  0.65354990  0.09383434     0.02300
C559        C  0.96439237  0.66113656  0.10599555    -0.18300
C560        C  0.98228295  0.68451936  0.11751801     0.02300
C561        C  0.01688415  0.70027156  0.11718158     0.02300
C562        C  0.03274225  0.69328222  0.10495972    -0.18300
H563        H  0.05933959  0.70534864  0.10486749     0.04300
H564        H  0.93780222  0.64914886  0.10634094     0.04300
C565        C  0.13718821  0.89412353  0.29015013    -0.03400
C566        C  0.10355570  0.87321203  0.29226235    -0.09100
C567        C  0.09284253  0.84912251  0.30385893    -0.16800
C568        C  0.11569950  0.84569434  0.31337438     0.25400
C569        C  0.14933815  0.86625372  0.31116396    -0.18400
C570        C  0.16008294  0.89048891  0.29959709    -0.07400
C571        C  0.10448001  0.82128896  0.32548826    -0.13800
C572        C  0.09364788  0.80046033  0.33545356    -0.13500
C573        C  0.07834276  0.77480109  0.34684126     0.25300
C574        C  0.08462474  0.78201784  0.36270445    -0.18900
C575        C  0.06760381  0.75744776  0.37373146    -0.07400
C576        C  0.04399998  0.72558469  0.36895004    -0.03500
C577        C  0.03880089  0.71823611  0.35300855    -0.08800
C578        C  0.05576342  0.74275993  0.34202675    -0.16400
H579        H  0.08569238  0.87587482  0.28504524     0.11700
H580        H  0.06676871  0.83333163  0.30547261     0.11000
H581        H  0.16718691  0.86371539  0.31844646     0.10900
H582        H  0.18612107  0.90650141  0.29804613     0.11500
H583        H  0.10209981  0.80675646  0.36654331     0.11500
H584        H  0.07206743  0.76353198  0.38597280     0.11500
H585        H  0.02113830  0.69365541  0.34908630     0.11600
H586        H  0.05080599  0.73689924  0.32978433     0.10500
C587        C  0.12998562  0.89233930  0.20957739    -0.03400
C588        C  0.15107216  0.89358918  0.19754423    -0.09100
C589        C  0.14020325  0.86883589  0.18608450    -0.16800
C590        C  0.10824371  0.84244000  0.18661185     0.25400
C591        C  0.08711308  0.84106065  0.19858381    -0.18400
C592        C  0.09790936  0.86588359  0.21001508    -0.07400
C593        C  0.09690167  0.81694554  0.17480432    -0.13800
C594        C  0.08608672  0.79568590  0.16488200    -0.13500
C595        C  0.07117231  0.77091012  0.15288306     0.25300
C596        C  0.05021305  0.73780534  0.15679569    -0.18900
C597        C  0.03319672  0.71447721  0.14514888    -0.07400
C598        C  0.03692204  0.72410110  0.12947979    -0.03500
C599        C  0.05892623  0.75701089  0.12560141    -0.08800
C600        C  0.07585862  0.78032142  0.13725202    -0.16400
H601        H  0.17590959  0.91377163  0.19704996     0.11700
H602        H  0.15671279  0.87025359  0.17684234     0.11000
H603        H  0.06228982  0.82082653  0.19906532     0.10900
H604        H  0.08130208  0.86455095  0.21918894     0.11500
H605        H  0.04641667  0.73022230  0.16884914     0.11500
H606        H  0.01662423  0.68909443  0.14835496     0.11500
H607        H  0.06211730  0.76487443  0.11359497     0.11600
H608        H  0.09194674  0.80586878  0.13409330     0.10500
C609        C  0.20625466  0.06677439  0.29042807    -0.03400
C610        C  0.19341555  0.08926680  0.29067727    -0.09100
C611        C  0.20466614  0.11499594  0.30164155    -0.16800
C612        C  0.22887066  0.11844597  0.31239131     0.25400
C613        C  0.24147946  0.09587486  0.31230021    -0.18400
C614        C  0.23026756  0.07016171  0.30134607    -0.07400
C615        C  0.24105948  0.14528736  0.32343483    -0.13800
C616        C  0.25134218  0.16738766  0.33290170    -0.13500
C617        C  0.26265082  0.19274016  0.34467402     0.25300
C618        C  0.26392487  0.18422855  0.36015971    -0.18900
C619        C  0.27258607  0.20821945  0.37184097    -0.07400
C620        C  0.27994271  0.24090134  0.36811474    -0.03500
C621        C  0.28005490  0.24966525  0.35247730    -0.08800
C622        C  0.27120379  0.22558615  0.34080310    -0.16400
H623        H  0.17488192  0.08695598  0.28232174     0.11700
H624        H  0.19470391  0.13230520  0.30166328     0.11000
H625        H  0.26016436  0.09833164  0.32060331     0.10900
H626        H  0.24049079  0.05308452  0.30125553     0.11500
H627        H  0.25744568  0.15887820  0.36323890     0.11500
H628        H  0.27240906  0.20105033  0.38383239     0.11500
H629        H  0.28612529  0.27489894  0.34938312     0.11600
H630        H  0.27042406  0.23241654  0.32883165     0.10500
C631        C  0.20461327  0.06523261  0.20982350    -0.03400
C632        C  0.19281802  0.08855612  0.21007417    -0.09100
C633        C  0.20332574  0.11370588  0.19898287    -0.16800
C634        C  0.22567180  0.11574940  0.18751700     0.25400
C635        C  0.23743432  0.09245109  0.18716581    -0.18400
C636        C  0.22696753  0.06728177  0.19828530    -0.07400
C637        C  0.23668593  0.14196848  0.17623668    -0.13800
C638        C  0.24591585  0.16434011  0.16700178    -0.13500
C639        C  0.25725907  0.19145719  0.15619118     0.25300
C640        C  0.29075954  0.21387906  0.15527290    -0.18900
C641        C  0.30187180  0.24039614  0.14487949    -0.07400
C642        C  0.27956322  0.24490178  0.13534428    -0.03500
C643        C  0.24598145  0.22210233  0.13620582    -0.08800
C644        C  0.23489171  0.19559079  0.14661969    -0.16400
H645        H  0.17556970  0.08728255  0.21890232     0.11700
H646        H  0.19410140  0.13160632  0.19937372     0.11000
H647        H  0.25476541  0.09383632  0.17835487     0.10900
H648        H  0.23637036  0.04952552  0.19797424     0.11500
H649        H  0.30828265  0.21090118  0.16261121     0.11500
H650        H  0.32785338  0.25760836  0.14436216     0.11500
H651        H  0.22841852  0.22476486  0.12877217     0.11600
H652        H  0.20892253  0.17831772  0.14719110     0.10500
C653        C  0.86945348  0.77008799  0.29215446    -0.03400
C654        C  0.90320343  0.78054698  0.29332559    -0.09100
C655        C  0.91519654  0.76802214  0.30503220    -0.16800
C656        C  0.89353778  0.74490590  0.31560068     0.25400
C657        C  0.85982350  0.73446829  0.31450307    -0.18400
C658        C  0.84780764  0.74709660  0.30282291    -0.07400
C659        C  0.90616619  0.73199649  0.32749529    -0.13800
C660        C  0.91863735  0.72237728  0.33711493    -0.13500
C661        C  0.93563719  0.71247235  0.34817594     0.25300
C662        C  0.93093107  0.67981878  0.34818157    -0.18900
C663        C  0.94844372  0.67062001  0.35859274    -0.07400
C664        C  0.97098817  0.69410319  0.36897673    -0.03500
C665        C  0.97548264  0.72676991  0.36896928    -0.08800
C666        C  0.95786553  0.73589917  0.35860190    -0.16400
H667        H  0.92014129  0.79838372  0.28518853     0.11700
H668        H  0.94132736  0.77628496  0.30582501     0.11000
H669        H  0.84289441  0.71659962  0.32263531     0.10900
H670        H  0.82169455  0.73887492  0.30201850     0.11500
H671        H  0.91391623  0.66157462  0.34009118     0.11500
H672        H  0.94473163  0.64532606  0.35845653     0.11500
H673        H  0.99254118  0.74509506  0.37701163     0.11600
H674        H  0.96171022  0.76124531  0.35864931     0.10500
C675        C  0.96445175  0.69300069  0.12952253    -0.03400
C676        C  0.94469282  0.66918603  0.14040122    -0.09100
C677        C  0.92953512  0.67787505  0.15233243    -0.16800
C678        C  0.93374538  0.71033322  0.15336345     0.25400
C679        C  0.95293287  0.73397074  0.14235192    -0.18400
C680        C  0.96824946  0.72537898  0.13049851    -0.07400
C681        C  0.91899353  0.71976753  0.16583167    -0.13800
C682        C  0.90768642  0.72921883  0.17614302    -0.13500
C683        C  0.89514286  0.74198801  0.18825324     0.25300
C684        C  0.86165769  0.73290776  0.18876132    -0.18900
C685        C  0.84964545  0.74599054  0.20029465    -0.07400
C686        C  0.87100285  0.76814355  0.21145828    -0.03500
C687        C  0.90454512  0.77714970  0.21093848    -0.08800
C688        C  0.91656341  0.76416171  0.19935559    -0.16400
H689        H  0.94169595  0.64417144  0.13985446     0.11700
H690        H  0.91482124  0.65941516  0.16081619     0.11000
H691        H  0.95633585  0.75913436  0.14302970     0.10900
H692        H  0.98335578  0.74402686  0.12217245     0.11500
H693        H  0.84489108  0.71587686  0.18020475     0.11500
H694        H  0.82371699  0.73886127  0.20055389     0.11500
H695        H  0.92133826  0.79435679  0.21943016     0.11600
H696        H  0.94254264  0.77150347  0.19901367     0.10500
C697        C  0.70342308  0.96199626  0.36669207    -0.03400
C698        C  0.71393604  0.93913607  0.37150662    -0.09100
C699        C  0.72209670  0.92155792  0.36054170    -0.16800
C700        C  0.71961358  0.92647816  0.34466187     0.25400
C701        C  0.70845851  0.94871773  0.33977475    -0.18400
C702        C  0.70026021  0.96630650  0.35074035    -0.07400
C703        C  0.72986046  0.90975209  0.33344319    -0.13800
C704        C  0.74018279  0.89710617  0.32415178    -0.13500
C705        C  0.75437155  0.88407556  0.31296128     0.25300
C706        C  0.74565717  0.85019957  0.31273907    -0.18900
C707        C  0.75966370  0.83786658  0.30179853    -0.07400
C708        C  0.78238125  0.85932218  0.29098231    -0.03500
C709        C  0.79121610  0.89326594  0.29134249    -0.08800
C710        C  0.77729321  0.90556961  0.30229683    -0.16400
H711        H  0.71643230  0.93542047  0.38375314     0.11700
H712        H  0.73077407  0.90447997  0.36444482     0.11000
H713        H  0.70643680  0.95271268  0.32751219     0.10900
H714        H  0.69167485  0.98342762  0.34680508     0.11500
H715        H  0.72800701  0.83336169  0.32096199     0.11500
H716        H  0.75255122  0.81159280  0.30161742     0.11500
H717        H  0.80872500  0.91010744  0.28307827     0.11600
H718        H  0.78430122  0.93182674  0.30241332     0.10500
C719        C  0.70296987  0.96118665  0.13567300    -0.03400
C720        C  0.70085724  0.96654538  0.15161834    -0.09100
C721        C  0.71232021  0.95180079  0.16257640    -0.16800
C722        C  0.72600993  0.93162463  0.15768114     0.25400
C723        C  0.72782604  0.92595694  0.14180312    -0.18400
C724        C  0.71621531  0.94050940  0.13085602    -0.07400
C725        C  0.73855262  0.91696809  0.16886550    -0.13800
C726        C  0.74952550  0.90466698  0.17797998    -0.13500
C727        C  0.76286492  0.89020405  0.18885678     0.25300
C728        C  0.75577744  0.85687264  0.18730646    -0.18900
C729        C  0.76803878  0.84265964  0.19814878    -0.07400
C730        C  0.78749607  0.86170770  0.21062856    -0.03500
C731        C  0.79508265  0.89528683  0.21192544    -0.08800
C732        C  0.78275468  0.90941962  0.20112247    -0.16400
H733        H  0.69050478  0.98224678  0.15553578     0.11700
H734        H  0.71070972  0.95629746  0.17483364     0.11000
H735        H  0.73839867  0.91044432  0.13788248     0.10900
H736        H  0.71812146  0.93618829  0.11860670     0.11500
H737        H  0.74048066  0.84179940  0.17783453     0.11500
H738        H  0.76188710  0.81671073  0.19699821     0.11500
H739        H  0.81011070  0.91034086  0.22146687     0.11600
H740        H  0.78847418  0.93523096  0.20241917     0.10500
C741        C  0.90332846  0.14652554  0.28783034    -0.03400
C742        C  0.90430998  0.16427522  0.30139308    -0.09100
C743        C  0.88001544  0.14980963  0.31274704    -0.16800
C744        C  0.85434964  0.11750532  0.31064597     0.25400
C745        C  0.85306850  0.09983432  0.29707934    -0.18400
C746        C  0.87745779  0.11416808  0.28577844    -0.07400
C747        C  0.82981214  0.10209336  0.32254268    -0.13800
C748        C  0.80947848  0.08831852  0.33248841    -0.13500
C749        C  0.78537461  0.07095740  0.34433536     0.25300
C750        C  0.79083176  0.05117809  0.35516230    -0.18900
C751        C  0.76719680  0.03370666  0.36643888    -0.07400
C752        C  0.73787482  0.03594961  0.36705398    -0.03500
C753        C  0.73267465  0.05609991  0.35629865    -0.08800
C754        C  0.75621556  0.07336545  0.34495253    -0.16400
H755        H  0.92405928  0.18920579  0.30321972     0.11700
H756        H  0.88137616  0.16372219  0.32320237     0.11000
H757        H  0.83341339  0.07481825  0.29531563     0.10900
H758        H  0.87634099  0.09995026  0.27547251     0.11500
H759        H  0.81325064  0.04907086  0.35481553     0.11500
H760        H  0.77165137  0.01830169  0.37463767     0.11500
H761        H  0.71009729  0.05790472  0.35651493     0.11600
H762        H  0.75159274  0.08842687  0.33661494     0.10500
C763        C  0.73412340  0.03492773  0.13272898    -0.03400
C764        C  0.76260711  0.03115155  0.13362222    -0.09100
C765        C  0.78823920  0.05118524  0.14362421    -0.16800
C766        C  0.78597973  0.07561162  0.15267530     0.25400
C767        C  0.75810065  0.08022714  0.15150277    -0.18400
C768        C  0.73231057  0.06002981  0.14155057    -0.07400
C769        C  0.81181837  0.09503679  0.16351903    -0.13800
C770        C  0.83323032  0.10970910  0.17295480    -0.13500
C771        C  0.85825582  0.12523505  0.18467903     0.25300
C772        C  0.87870628  0.15968168  0.18471348    -0.18900
C773        C  0.90291177  0.17446138  0.19619441    -0.07400
C774        C  0.90675291  0.15485425  0.20773151    -0.03500
C775        C  0.88618969  0.12038465  0.20762373    -0.08800
C776        C  0.86211188  0.10566849  0.19615682    -0.16400
H777        H  0.76486341  0.01246944  0.12667519     0.11700
H778        H  0.80970072  0.04742624  0.14439677     0.11000
H779        H  0.75609662  0.09907880  0.15844040     0.10900
H780        H  0.71065801  0.06348479  0.14097572     0.11500
H781        H  0.87595577  0.17505862  0.17588248     0.11500
H782        H  0.91862822  0.20108102  0.19610773     0.11500
H783        H  0.88896302  0.10491029  0.21639487     0.11600
H784        H  0.84650692  0.07901465  0.19623658     0.10500
C785        C  0.07444884  0.21928535  0.28953244    -0.03400
C786        C  0.09808301  0.20809826  0.28851305    -0.09100
C787        C  0.12143398  0.21556089  0.30036018    -0.16800
C788        C  0.12136509  0.23422672  0.31335120     0.25400
C789        C  0.09781647  0.24533514  0.31439421    -0.18400
C790        C  0.07455081  0.23795475  0.30257279    -0.07400
C791        C  0.14538354  0.24221435  0.32561964    -0.13800
C792        C  0.16523497  0.24945818  0.33603743    -0.13500
C793        C  0.18917289  0.25814026  0.34839450     0.25300
C794        C  0.21418519  0.29093101  0.35011445    -0.18900
C795        C  0.23852968  0.29889524  0.36149846    -0.07400
C796        C  0.23824344  0.27406292  0.37120210    -0.03500
C797        C  0.21236535  0.24152466  0.36983902    -0.08800
C798        C  0.18805570  0.23360750  0.35848252    -0.16400
H799        H  0.09835588  0.19357887  0.27857161     0.11700
H800        H  0.13949391  0.20679004  0.29939318     0.11000
H801        H  0.09746554  0.25977750  0.32435209     0.10900
H802        H  0.05658770  0.24683580  0.30356253     0.11500
H803        H  0.21526457  0.31019023  0.34244407     0.11500
H804        H  0.25823852  0.32412411  0.36236290     0.11500
H805        H  0.21152879  0.22208711  0.37730669     0.11600
H806        H  0.16876751  0.20821280  0.35737050     0.10500
C807        C  0.25463181  0.29474349  0.13557290    -0.03400
C808        C  0.26137213  0.29619105  0.15157083    -0.09100
C809        C  0.23728992  0.29223831  0.16242931    -0.16800
C810        C  0.20630551  0.28693026  0.15740635     0.25400
C811        C  0.19991732  0.28675190  0.14148876    -0.18400
C812        C  0.22400013  0.29079554  0.13062611    -0.07400
C813        C  0.18042362  0.27952121  0.16848340    -0.13800
C814        C  0.15810202  0.27125475  0.17758021    -0.13500
C815        C  0.13115048  0.25953283  0.18836335     0.25300
C816        C  0.11268808  0.27649956  0.19016172    -0.18900
C817        C  0.08652931  0.26492236  0.20065910    -0.07400
C818        C  0.07877854  0.23637736  0.20947297    -0.03500
C819        C  0.09718915  0.21935046  0.20756044    -0.08800
C820        C  0.12320008  0.23083673  0.19703441    -0.16400
H821        H  0.28500824  0.29964523  0.15561803     0.11700
H822        H  0.24255720  0.29250612  0.17471197     0.11000
H823        H  0.17604209  0.28263620  0.13746400     0.10900
H824        H  0.21836557  0.28966818  0.11835243     0.11500
H825        H  0.11857770  0.29868848  0.18350075     0.11500
H826        H  0.07260119  0.27837272  0.20206658     0.11500
H827        H  0.09147531  0.19730116  0.21429789     0.11600
H828        H  0.13720491  0.21743272  0.19570980     0.10500
C829        C  0.32527152  0.35149588  0.09035721    -0.03400
C830        C  0.35856885  0.37523078  0.08957730    -0.09100
C831        C  0.36877186  0.40253951  0.07963549    -0.16800
C832        C  0.34581551  0.40640009  0.07036131     0.25400
C833        C  0.31265373  0.38269586  0.07103444    -0.18400
C834        C  0.30243020  0.35549663  0.08098871    -0.07400
C835        C  0.35581061  0.43497348  0.06043483    -0.13800
C836        C  0.36163938  0.45842725  0.05215160    -0.13500
C837        C  0.36494739  0.48556536  0.04243134     0.25300
C838        C  0.34376069  0.47919378  0.02976581    -0.18900
C839        C  0.34384445  0.50547252  0.02142392    -0.07400
C840        C  0.36521562  0.53868502  0.02560158    -0.03500
C841        C  0.38757361  0.54486308  0.03786720    -0.08800
C842        C  0.38731569  0.51845399  0.04626665    -0.16400
H843        H  0.37651182  0.37302813  0.09692110     0.11700
H844        H  0.39445249  0.42081849  0.07932664     0.11000
H845        H  0.29461717  0.38543370  0.06397944     0.10900
H846        H  0.27662830  0.33763050  0.08146943     0.11500
H847        H  0.32634067  0.45389370  0.02666302     0.11500
H848        H  0.32641464  0.49974408  0.01199577     0.11500
H849        H  0.40421120  0.57007096  0.04143281     0.11600
H850        H  0.40378921  0.52373503  0.05607268     0.10500
C851        C  0.03405681  0.66385428  0.08089384    -0.03400
C852        C  0.06028519  0.69080431  0.07362818    -0.09100
C853        C  0.08122179  0.68559200  0.06359700    -0.16800
C854        C  0.07617272  0.65335512  0.06055441     0.25400
C855        C  0.04943005  0.62623121  0.06729380    -0.18400
C856        C  0.02857242  0.63143435  0.07747088    -0.07400
C857        C  0.10003937  0.64861214  0.05155986    -0.13800
C858        C  0.12217330  0.64648294  0.04505688    -0.13500
C859        C  0.15060676  0.64563243  0.03856865     0.25300
C860        C  0.16968590  0.63631794  0.04793236    -0.18900
C861        C  0.19845383  0.63740291  0.04213532    -0.07400
C862        C  0.20869475  0.64784309  0.02681901    -0.03500
C863        C  0.18897778  0.65650896  0.01736137    -0.08800
C864        C  0.16021069  0.65553203  0.02323083    -0.16400
H865        H  0.06510779  0.71603050  0.07607167     0.11700
H866        H  0.10191098  0.70680177  0.05855022     0.11000
H867        H  0.04539054  0.60116349  0.06512381     0.10900
H868        H  0.00904266  0.61025500  0.08313944     0.11500
H869        H  0.16257981  0.62866479  0.05982384     0.11500
H870        H  0.21281000  0.63029820  0.04972452     0.11500
H871        H  0.19608403  0.66465244  0.00553277     0.11600
H872        H  0.14573351  0.66294412  0.01587941     0.10500
C873        C  0.62916095  0.94772113  0.09168366    -0.03400
C874        C  0.60024802  0.92227893  0.09797201    -0.09100
C875        C  0.57879928  0.89573035  0.08869424    -0.16800
C876        C  0.58602682  0.89427013  0.07302898     0.25400
C877        C  0.61378620  0.92053304  0.06644134    -0.18400
C878        C  0.63532733  0.94720087  0.07573965    -0.07400
C879        C  0.56556917  0.86518787  0.06396900    -0.13800
C880        C  0.54739784  0.84087615  0.05660311    -0.13500
C881        C  0.52325659  0.81395802  0.04748256     0.25300
C882        C  0.51679364  0.78094703  0.04971079    -0.18900
C883        C  0.49116521  0.75503218  0.04147848    -0.07400
C884        C  0.47177953  0.76205314  0.03103003    -0.03500
C885        C  0.47944605  0.79550122  0.02859789    -0.08800
C886        C  0.50481731  0.82106608  0.03675441    -0.16400
H887        H  0.59510718  0.92224686  0.11024786     0.11700
H888        H  0.55722458  0.87574602  0.09387499     0.11000
H889        H  0.61942723  0.91976992  0.05428270     0.10900
H890        H  0.65764379  0.96638387  0.07070534     0.11500
H891        H  0.53102329  0.77520499  0.05802112     0.11500
H892        H  0.48597471  0.72963647  0.04359282     0.11500
H893        H  0.46538887  0.80210035  0.02056976     0.11600
H894        H  0.50958323  0.84645019  0.03492078     0.10500
C895        C  0.32056311  0.52423489  0.47641476    -0.03400
C896        C  0.29220885  0.50323162  0.46791436    -0.09100
C897        C  0.28977127  0.47473290  0.46057284    -0.16800
C898        C  0.31553429  0.46678036  0.46166976     0.25400
C899        C  0.34351668  0.48704083  0.47036593    -0.18400
C900        C  0.34604261  0.51554250  0.47771201    -0.07400
C901        C  0.31368583  0.43839616  0.45349881    -0.13800
C902        C  0.31225938  0.41510202  0.44624864    -0.13500
C903        C  0.30994175  0.38774235  0.43703018     0.25300
C904        C  0.33611669  0.39165847  0.42751955    -0.18900
C905        C  0.33279141  0.36589401  0.41759409    -0.07400
C906        C  0.30317997  0.33615666  0.41708718    -0.03500
C907        C  0.27742095  0.33200092  0.42700245    -0.08800
C908        C  0.28081831  0.35767116  0.43695581    -0.16400
H909        H  0.27216552  0.50912316  0.46666978     0.11700
H910        H  0.26799059  0.45916799  0.45385424     0.11000
H911        H  0.36358902  0.48107423  0.47128496     0.10900
H912        H  0.36822035  0.53104427  0.48417503     0.11500
H913        H  0.35870801  0.41490975  0.42746782     0.11500
H914        H  0.35273219  0.36960420  0.40987862     0.11500
H915        H  0.25439299  0.30920092  0.42669621     0.11600
H916        H  0.26043661  0.35441315  0.44426376     0.10500
C917        C  0.04016052  0.65498554  0.41331792    -0.03400
C918        C  0.03499377  0.62203529  0.41321154    -0.09100
C919        C  0.05451035  0.61300258  0.42241830    -0.16800
C920        C  0.07920297  0.63683881  0.43180841     0.25400
C921        C  0.08394992  0.66949296  0.43217589    -0.18400
C922        C  0.06461224  0.67856149  0.42295122    -0.07400
C923        C  0.10088214  0.62871304  0.44062355    -0.13800
C924        C  0.12162008  0.62612318  0.44809901    -0.13500
C925        C  0.14875622  0.62802259  0.45702777     0.25300
C926        C  0.16648931  0.65583038  0.46646905    -0.18900
C927        C  0.19422653  0.65930473  0.47444857    -0.07400
C928        C  0.20475031  0.63498048  0.47306869    -0.03500
C929        C  0.18633259  0.60669080  0.46380314    -0.08800
C930        C  0.15851515  0.60330525  0.45578925    -0.16400
H931        H  0.01655249  0.60362863  0.40567211     0.11700
H932        H  0.05078682  0.58771109  0.42198792     0.11000
H933        H  0.10305596  0.68812001  0.43937967     0.10900
H934        H  0.06899158  0.70407925  0.42314833     0.11500
H935        H  0.15918630  0.67515730  0.46745723     0.11500
H936        H  0.20768929  0.68136061  0.48150368     0.11500
H937        H  0.19375830  0.58753719  0.46248418     0.11600
H938        H  0.14497972  0.58174226  0.44844389     0.10500
C939        C  0.63701072  0.96069323  0.41207905    -0.03400
C940        C  0.64376242  0.96310810  0.42810368    -0.09100
C941        C  0.62019418  0.94130060  0.43850583    -0.16800
C942        C  0.58962604  0.91706249  0.43298572     0.25400
C943        C  0.58257079  0.91522323  0.41707966    -0.18400
C944        C  0.60608769  0.93680550  0.40670260    -0.07400
C945        C  0.56563478  0.89321899  0.44336229    -0.13800
C946        C  0.54407450  0.87145677  0.45076703    -0.13500
C947        C  0.51685985  0.84362263  0.45798149     0.25300
C948        C  0.49652459  0.81604765  0.44889118    -0.18900
C949        C  0.46985615  0.78897443  0.45555561    -0.07400
C950        C  0.46299071  0.78888104  0.47151181    -0.03500
C951        C  0.48362674  0.81667799  0.48061236    -0.08800
C952        C  0.51034336  0.84390360  0.47386800    -0.16400
H953        H  0.66757957  0.98111201  0.43247415     0.11700
H954        H  0.62601569  0.94294191  0.45077644     0.11000
H955        H  0.55905613  0.89664469  0.41264802     0.10900
H956        H  0.60038985  0.93452644  0.39440593     0.11500
H957        H  0.50124503  0.81548385  0.43659407     0.11500
H958        H  0.45465691  0.76804200  0.44816140     0.11500
H959        H  0.47898667  0.81751217  0.49288944     0.11600
H960        H  0.52584071  0.86515458  0.48102797     0.10500
C961        C  0.03743636  0.38181892  0.90810712    -0.03400
C962        C  0.06131505  0.37818969  0.91679612    -0.09100
C963        C  0.08274102  0.40376244  0.92653078    -0.16800
C964        C  0.08065690  0.43333114  0.92770210     0.25400
C965        C  0.05664610  0.43706761  0.91923204    -0.18400
C966        C  0.03510119  0.41139980  0.90946061    -0.07400
C967        C  0.10402880  0.45989429  0.93727113    -0.13800
C968        C  0.12538542  0.48068138  0.94522365    -0.13500
C969        C  0.15244509  0.50410733  0.95447455     0.25300
C970        C  0.16280523  0.53817476  0.95325046    -0.18900
C971        C  0.19021488  0.56095535  0.96162372    -0.07400
C972        C  0.20780717  0.54994180  0.97127163    -0.03500
C973        C  0.19678941  0.51556039  0.97262634    -0.08800
C974        C  0.16931065  0.49284926  0.96428392    -0.16400
H975        H  0.06346015  0.35556819  0.91596580     0.11700
H976        H  0.10122385  0.40061887  0.93301862     0.11000
H977        H  0.05489064  0.45991010  0.92000974     0.10900
H978        H  0.01709142  0.41484488  0.90273210     0.11500
H979        H  0.15000387  0.54716503  0.94564810     0.11500
H980        H  0.19801968  0.58720650  0.96026080     0.11500
H981        H  0.20962830  0.50618434  0.97997315     0.11600
H982        H  0.16152085  0.46651235  0.96530232     0.10500
C983        C  0.31331456  0.94996037  0.91652330    -0.03400
C984        C  0.32186071  0.92663844  0.91012040    -0.09100
C985        C  0.32239668  0.90179470  0.91935323    -0.16800
C986        C  0.31449755  0.89995838  0.93512263     0.25400
C987        C  0.30746844  0.92403690  0.94176778    -0.18400
C988        C  0.30689224  0.94896968  0.93251036    -0.07400
C989        C  0.31271123  0.87273638  0.94425309    -0.13800
C990        C  0.31185859  0.84954690  0.95132804    -0.13500
C991        C  0.31308635  0.82252063  0.95940119     0.25300
C992        C  0.33890426  0.82925543  0.96970537    -0.18900
C993        C  0.34162740  0.80325541  0.97688616    -0.07400
C994        C  0.31845647  0.76993561  0.97390229    -0.03500
C995        C  0.29216067  0.76337938  0.96375132    -0.08800
C996        C  0.28956450  0.78953864  0.95651527    -0.16400
H997        H  0.32685008  0.92691245  0.89781400     0.11700
H998        H  0.32805543  0.88344983  0.91409181     0.11000
H999        H  0.30143830  0.92292495  0.95397909     0.10900
H1000       H  0.29980899  0.96637818  0.93764797     0.11500
H1001       H  0.35725809  0.85464546  0.97202308     0.11500
H1002       H  0.36210160  0.80933156  0.98469990     0.11500
H1003       H  0.27395841  0.73808428  0.96118573     0.11600
H1004       H  0.26950193  0.78402071  0.94851171     0.10500
C1005       C  0.48274489  0.69492844  0.52122698    -0.03400
C1006       C  0.49568520  0.67374091  0.51662155    -0.09100
C1007       C  0.52527780  0.67772348  0.52279777    -0.16800
C1008       C  0.54237471  0.70284474  0.53367242     0.25400
C1009       C  0.53037061  0.72481406  0.53795090    -0.18400
C1010       C  0.50074565  0.72096682  0.53172606    -0.07400
C1011       C  0.57089754  0.70440365  0.54118963    -0.13800
C1012       C  0.59348810  0.70405341  0.54806488    -0.13500
C1013       C  0.61952047  0.70364917  0.55710168     0.25300
C1014       C  0.65020374  0.73190577  0.55767321    -0.18900
C1015       C  0.67439626  0.73308351  0.56778720    -0.07400
C1016       C  0.66816737  0.70597456  0.57742033    -0.03500
C1017       C  0.63789753  0.67704026  0.57626773    -0.08800
C1018       C  0.61361710  0.67592873  0.56615967    -0.16400
H1019       H  0.48261036  0.65358174  0.50847646     0.11700
H1020       H  0.53436335  0.66061266  0.51940725     0.11000
H1021       H  0.54343137  0.74432600  0.54640274     0.10900
H1022       H  0.49143054  0.73762800  0.53552447     0.11500
H1023       H  0.65500566  0.75348379  0.55074123     0.11500
H1024       H  0.69752439  0.75569106  0.56861432     0.11500
H1025       H  0.63244629  0.65611714  0.58378923     0.11600
H1026       H  0.58986951  0.65397669  0.56584266     0.10500
C1027       C  0.47236811  0.65718682  0.97419100    -0.03400
C1028       C  0.49734939  0.65820614  0.98396237    -0.09100
C1029       C  0.52670636  0.66130791  0.97764037    -0.16800
C1030       C  0.53142330  0.66337220  0.96150845     0.25400
C1031       C  0.50652044  0.66183548  0.95175306    -0.18400
C1032       C  0.47733028  0.65874400  0.95799330    -0.07400
C1033       C  0.56183601  0.66777851  0.95474604    -0.13800
C1034       C  0.58632259  0.67210370  0.94785003    -0.13500
C1035       C  0.61438011  0.67786676  0.93843796     0.25300
C1036       C  0.61289586  0.65304858  0.92829906    -0.18900
C1037       C  0.63897277  0.65947868  0.91822652    -0.07400
C1038       C  0.66681135  0.69087997  0.91813462    -0.03500
C1039       C  0.66843496  0.71549287  0.92851133    -0.08800
C1040       C  0.64241907  0.70897915  0.93864115    -0.16400
H1041       H  0.49440964  0.65705074  0.99645632     0.11700
H1042       H  0.54581063  0.66243831  0.98532714     0.11000
H1043       H  0.50978477  0.66336989  0.93926614     0.10900
H1044       H  0.45876848  0.65796069  0.95004738     0.11500
H1045       H  0.59125677  0.62898098  0.92791897     0.11500
H1046       H  0.63701717  0.64031115  0.91016805     0.11500
H1047       H  0.68964289  0.73988606  0.92858331     0.11600
H1048       H  0.64384556  0.72844767  0.94636494     0.10500
C1049       C  0.33567469  0.96672048  0.58669016    -0.03400
C1050       C  0.36794043  0.97119184  0.58651213    -0.09100
C1051       C  0.37588678  0.95050132  0.57741034    -0.16800
C1052       C  0.35167236  0.92520857  0.56840395     0.25400
C1053       C  0.31967903  0.92123746  0.56821534    -0.18400
C1054       C  0.31168672  0.94181680  0.57734116    -0.07400
C1055       C  0.35890720  0.90196126  0.56009218    -0.13800
C1056       C  0.36214323  0.88035950  0.55342422    -0.13500
C1057       C  0.36165387  0.85233589  0.54541158     0.25300
C1058       C  0.33295975  0.83006700  0.53775010    -0.18900
C1059       C  0.33156706  0.80253037  0.52999080    -0.07400
C1060       C  0.35894157  0.79665359  0.52972670    -0.03500
C1061       C  0.38774065  0.81905206  0.53760261    -0.08800
C1062       C  0.38905578  0.84676146  0.54540348    -0.16400
H1063       H  0.38665834  0.98991500  0.59382554     0.11700
H1064       H  0.40065480  0.95365766  0.57771419     0.11000
H1065       H  0.30072203  0.90168779  0.56131993     0.10900
H1066       H  0.28665724  0.93793198  0.57736186     0.11500
H1067       H  0.31152295  0.83395854  0.53778778     0.11500
H1068       H  0.30886511  0.78579706  0.52421147     0.11500
H1069       H  0.40914426  0.81514451  0.53777142     0.11600
H1070       H  0.41134072  0.86373966  0.55142703     0.10500
C1071       C  0.21471736  0.53763020  0.52862084    -0.03400
C1072       C  0.20795480  0.53652728  0.54462136    -0.09100
C1073       C  0.17963668  0.51054834  0.55081664    -0.16800
C1074       C  0.15746643  0.48506974  0.54120978     0.25400
C1075       C  0.16376031  0.48581886  0.52524566    -0.18400
C1076       C  0.19216255  0.51196436  0.51897120    -0.07400
C1077       C  0.12886080  0.45807619  0.54803914    -0.13800
C1078       C  0.10649808  0.43634471  0.55507823    -0.13500
C1079       C  0.08174980  0.41085584  0.56455824     0.25300
C1080       C  0.08127655  0.38008060  0.56605804    -0.18900
C1081       C  0.05891851  0.35609010  0.57605180    -0.07400
C1082       C  0.03677090  0.36255684  0.58478960    -0.03500
C1083       C  0.03697583  0.39330026  0.58305948    -0.08800
C1084       C  0.05932720  0.41729123  0.57298249    -0.16400
H1085       H  0.22450587  0.55584961  0.55242216     0.11700
H1086       H  0.17509922  0.51028561  0.56317420     0.11000
H1087       H  0.14682063  0.46619654  0.51767074     0.10900
H1088       H  0.19648904  0.51201739  0.50660940     0.11500
H1089       H  0.09864053  0.37485972  0.55973439     0.11500
H1090       H  0.05938190  0.33266498  0.57724912     0.11500
H1091       H  0.02069128  0.39918388  0.58990119     0.11600
H1092       H  0.05966916  0.44114305  0.57205799     0.10500
C1093       C  0.92367994  0.77518003  0.78722132    -0.03400
C1094       C  0.92281923  0.75436901  0.79939139    -0.09100
C1095       C  0.89934421  0.74573851  0.81112751    -0.16800
C1096       C  0.87640882  0.75772043  0.81080848     0.25400
C1097       C  0.87698205  0.77829209  0.79863903    -0.18400
C1098       C  0.90055279  0.78706516  0.78692443    -0.07400
C1099       C  0.85270934  0.74934912  0.82311073    -0.13800
C1100       C  0.83323298  0.74259408  0.83356296    -0.13500
C1101       C  0.81012465  0.73484038  0.84609201     0.25300
C1102       C  0.81412307  0.75926955  0.85705790    -0.18900
C1103       C  0.79131086  0.75199208  0.86901553    -0.07400
C1104       C  0.76424736  0.72017528  0.87012699    -0.03500
C1105       C  0.76068588  0.69559583  0.85928061    -0.08800
C1106       C  0.78343935  0.70294541  0.84728251    -0.16400
H1107       H  0.94054002  0.74509802  0.79984748     0.11700
H1108       H  0.89920957  0.72989431  0.82049840     0.11000
H1109       H  0.85941909  0.78778155  0.79828421     0.10900
H1110       H  0.90101063  0.80336932  0.77770657     0.11500
H1111       H  0.83471994  0.78399369  0.85629473     0.11500
H1112       H  0.79457054  0.77120858  0.87733533     0.11500
H1113       H  0.73990574  0.67097675  0.85992058     0.11600
H1114       H  0.78008578  0.68384721  0.83887196     0.10500
C1115       C  0.09456393  0.85440035  0.78802166    -0.03400
C1116       C  0.09668557  0.83357152  0.79941569    -0.09100
C1117       C  0.12020077  0.84687592  0.81121495    -0.16800
C1118       C  0.14166045  0.88104437  0.81167147     0.25400
C1119       C  0.13941650  0.90192257  0.80040171    -0.18400
C1120       C  0.11594812  0.88865519  0.78860351    -0.07400
C1121       C  0.16580159  0.89488252  0.82377179    -0.13800
C1122       C  0.18575074  0.90743079  0.83397696    -0.13500
C1123       C  0.20862330  0.92323530  0.84640990     0.25300
C1124       C  0.19800912  0.91628397  0.86180890    -0.18900
C1125       C  0.21980490  0.93250255  0.87397229    -0.07400
C1126       C  0.25227884  0.95601643  0.87078830    -0.03500
C1127       C  0.26294448  0.96266025  0.85533294    -0.08800
C1128       C  0.24115106  0.94631226  0.84317150    -0.16400
H1129       H  0.08010617  0.80712915  0.79915023     0.11700
H1130       H  0.12163230  0.83059020  0.81996456     0.11000
H1131       H  0.15576528  0.92842497  0.80075386     0.10900
H1132       H  0.11428417  0.90502022  0.77997128     0.11500
H1133       H  0.17282713  0.89858197  0.86439844     0.11500
H1134       H  0.21125226  0.92724277  0.88584871     0.11500
H1135       H  0.28801673  0.98064118  0.85273159     0.11600
H1136       H  0.24954075  0.95187953  0.83127905     0.10500
C1137       C  0.09670768  0.85731405  0.70754461    -0.03400
C1138       C  0.12285369  0.88951785  0.70947415    -0.09100
C1139       C  0.14686461  0.90344192  0.69805347    -0.16800
C1140       C  0.14468346  0.88561773  0.68445185     0.25400
C1141       C  0.11831909  0.85382876  0.68224059    -0.18400
C1142       C  0.09451372  0.83963577  0.69377849    -0.07400
C1143       C  0.16982540  0.89998791  0.67291268    -0.13800
C1144       C  0.19158175  0.91300695  0.66362585    -0.13500
C1145       C  0.21766238  0.92960840  0.65272150     0.25300
C1146       C  0.21102054  0.92547541  0.63677462    -0.18900
C1147       C  0.23599594  0.94288293  0.62613853    -0.07400
C1148       C  0.26775951  0.96474273  0.63138560    -0.03500
C1149       C  0.27451597  0.96810501  0.64739943    -0.08800
C1150       C  0.24949923  0.95068156  0.65803030    -0.16400
H1151       H  0.12464838  0.90383257  0.71984068     0.11700
H1152       H  0.16710934  0.92812894  0.69982044     0.11000
H1153       H  0.11631020  0.83996624  0.67167963     0.10900
H1154       H  0.07432127  0.81493821  0.69198529     0.11500
H1155       H  0.18644862  0.90921389  0.63257663     0.11500
H1156       H  0.23039313  0.94001165  0.61382967     0.11500
H1157       H  0.29898763  0.98459172  0.65163515     0.11600
H1158       H  0.25486264  0.95396314  0.67036306     0.10500
C1159       C  0.75828677  0.72795378  0.62813832    -0.03400
C1160       C  0.75617659  0.70325787  0.63845984    -0.09100
C1161       C  0.78036132  0.71065514  0.64983179    -0.16800
C1162       C  0.80684792  0.74273617  0.65094331     0.25400
C1163       C  0.80897666  0.76744743  0.64074437    -0.18400
C1164       C  0.78500302  0.76005173  0.62933667    -0.07400
C1165       C  0.83218073  0.75030386  0.66235618    -0.13800
C1166       C  0.85360722  0.75719087  0.67186961    -0.13500
C1167       C  0.87871371  0.76574499  0.68349882     0.25300
C1168       C  0.88009906  0.78595598  0.69606733    -0.18900
C1169       C  0.90388823  0.79371861  0.70762205    -0.07400
C1170       C  0.92643903  0.78121597  0.70673144    -0.03500
C1171       C  0.92530678  0.76136197  0.69398733    -0.08800
C1172       C  0.90147937  0.75361641  0.68241692    -0.16400
H1173       H  0.73576454  0.67839728  0.63775555     0.11700
H1174       H  0.77849074  0.69136944  0.65770088     0.11000
H1175       H  0.82935683  0.79233733  0.64149757     0.10900
H1176       H  0.78741209  0.77934733  0.62135199     0.11500
H1177       H  0.86268836  0.79557028  0.69697104     0.11500
H1178       H  0.90470838  0.80937615  0.71729371     0.11500
H1179       H  0.94271224  0.75174501  0.69309304     0.11600
H1180       H  0.90067736  0.73805147  0.67270386     0.10500
C1181       C  0.02904549  0.30596863  0.86491905    -0.03400
C1182       C  0.04668870  0.32535169  0.85225580    -0.09100
C1183       C  0.06070261  0.31273967  0.84146579    -0.16800
C1184       C  0.05752566  0.28085127  0.84338691     0.25400
C1185       C  0.04026499  0.26162610  0.85611893    -0.18400
C1186       C  0.02602722  0.27409593  0.86682996    -0.07400
C1187       C  0.07182852  0.26771830  0.83230716    -0.13800
C1188       C  0.08354282  0.25629823  0.82309407    -0.13500
C1189       C  0.09734876  0.24268467  0.81199354     0.25300
C1190       C  0.09314083  0.21039357  0.81381094    -0.18900
C1191       C  0.10632504  0.19713790  0.80290769    -0.07400
C1192       C  0.12410160  0.21619905  0.79015123    -0.03500
C1193       C  0.12819073  0.24855646  0.78841791    -0.08800
C1194       C  0.11483346  0.26168360  0.79926102    -0.16400
H1195       H  0.04888759  0.34984253  0.85055511     0.11700
H1196       H  0.07385646  0.32775154  0.83160998     0.11000
H1197       H  0.03762795  0.23692755  0.85770277     0.10900
H1198       H  0.01236173  0.25882444  0.87652100     0.11500
H1199       H  0.07957168  0.19544376  0.82360524     0.11500
H1200       H  0.10264139  0.17203403  0.80437765     0.11500
H1201       H  0.14174930  0.26361037  0.77865189     0.11600
H1202       H  0.11814921  0.28664546  0.79771749     0.10500
C1203       C  0.27946789  0.02852414  0.87472088    -0.03400
C1204       C  0.30340534  0.05321947  0.86542355    -0.09100
C1205       C  0.29418932  0.06885425  0.85390767    -0.16800
C1206       C  0.26100940  0.06004013  0.85165448     0.25400
C1207       C  0.23720727  0.03627740  0.86125918    -0.18400
C1208       C  0.24638282  0.02073929  0.87277938    -0.07400
C1209       C  0.25113714  0.07448484  0.83921086    -0.13800
C1210       C  0.24219544  0.08571840  0.82868064    -0.13500
C1211       C  0.23137975  0.09897403  0.81609665     0.25300
C1212       C  0.19823106  0.09098240  0.81473751    -0.18900
C1213       C  0.18789390  0.10444388  0.80270520    -0.07400
C1214       C  0.21061875  0.12597052  0.79190171    -0.03500
C1215       C  0.24374216  0.13360003  0.79320482    -0.08800
C1216       C  0.25406176  0.12016352  0.80525593    -0.16400
H1217       H  0.32900599  0.05944190  0.86669096     0.11700
H1218       H  0.31282418  0.08724213  0.84654771     0.11000
H1219       H  0.21148960  0.02930259  0.85965279     0.10900
H1220       H  0.22757973  0.00191395  0.87990069     0.11500
H1221       H  0.18044531  0.07454890  0.82302803     0.11500
H1222       H  0.16223748  0.09826331  0.80183643     0.11500
H1223       H  0.26157593  0.15021732  0.78498961     0.11600
H1224       H  0.27974579  0.12647630  0.80618550     0.10500
C1225       C  0.22300493  0.13451647  0.71129089    -0.03400
C1226       C  0.25672094  0.14438250  0.71230455    -0.09100
C1227       C  0.27163898  0.13316931  0.70131379    -0.16800
C1228       C  0.25291620  0.11197776  0.68926065     0.25400
C1229       C  0.21933847  0.10222969  0.68818029    -0.18400
C1230       C  0.20442808  0.11342595  0.69913701    -0.07400
C1231       C  0.26770139  0.09973415  0.67801760    -0.13800
C1232       C  0.27749662  0.08783321  0.66811805    -0.13500
C1233       C  0.28618206  0.07185039  0.65589337     0.25300
C1234       C  0.26187787  0.05020907  0.64565116    -0.18900
C1235       C  0.26977118  0.03385095  0.63396929    -0.07400
C1236       C  0.30203100  0.03870305  0.63252704    -0.03500
C1237       C  0.32649218  0.06106116  0.64259015    -0.08800
C1238       C  0.31857040  0.07749151  0.65426471    -0.16400
H1239       H  0.27136752  0.16069672  0.72161018     0.11700
H1240       H  0.29764103  0.14087888  0.70224895     0.11000
H1241       H  0.20464918  0.08582702  0.67890231     0.10900
H1242       H  0.17839232  0.10552966  0.69822023     0.11500
H1243       H  0.23677260  0.04580536  0.64676888     0.11500
H1244       H  0.25067080  0.01710573  0.62616882     0.11500
H1245       H  0.35152048  0.06518160  0.64161343     0.11600
H1246       H  0.33757393  0.09427099  0.66210015     0.10500
C1247       C  0.12615834  0.21409386  0.70961561    -0.03400
C1248       C  0.10926885  0.19328287  0.69703236    -0.09100
C1249       C  0.09669962  0.20486993  0.68513729    -0.16800
C1250       C  0.10074371  0.23728210  0.68576314     0.25400
C1251       C  0.11697642  0.25789474  0.69841766    -0.18400
C1252       C  0.12966829  0.24639353  0.71028224    -0.07400
C1253       C  0.08836342  0.24953341  0.67344059    -0.13800
C1254       C  0.07772856  0.26006888  0.66334211    -0.13500
C1255       C  0.06376132  0.27202689  0.65161207     0.25300
C1256       C  0.07255991  0.30587987  0.65083129    -0.18900
C1257       C  0.05737633  0.31704033  0.63999914    -0.07400
C1258       C  0.03321396  0.29435831  0.62994020    -0.03500
C1259       C  0.02529610  0.26064859  0.63044980    -0.08800
C1260       C  0.04036558  0.24951747  0.64129689    -0.16400
H1261       H  0.10609966  0.16820873  0.69639263     0.11700
H1262       H  0.08400545  0.18865211  0.67543591     0.11000
H1263       H  0.12005693  0.28294309  0.69904579     0.10900
H1264       H  0.14253408  0.26275097  0.71990921     0.11500
H1265       H  0.09066554  0.32349589  0.65876830     0.11500
H1266       H  0.06376267  0.34313344  0.63973560     0.11500
H1267       H  0.00700973  0.24290545  0.62263100     0.11600
H1268       H  0.03343017  0.22330355  0.64178969     0.10500
C1269       C  0.86692453  0.09308450  0.79278212    -0.03400
C1270       C  0.90016689  0.11626952  0.79450526    -0.09100
C1271       C  0.90991057  0.14107303  0.80588091    -0.16800
C1272       C  0.88652657  0.14295508  0.81560606     0.25400
C1273       C  0.85337683  0.11957390  0.81408621    -0.18400
C1274       C  0.84360630  0.09465943  0.80272838    -0.07400
C1275       C  0.89670215  0.16944934  0.82683035    -0.13800
C1276       C  0.90719613  0.19268161  0.83572113    -0.13500
C1277       C  0.92238155  0.22124247  0.84577968     0.25300
C1278       C  0.91711888  0.21790048  0.86183375    -0.18900
C1279       C  0.93423176  0.24518053  0.87168182    -0.07400
C1280       C  0.95682250  0.27598118  0.86554417    -0.03500
C1281       C  0.96094082  0.27948574  0.84937545    -0.08800
C1282       C  0.94397594  0.25218934  0.83955934    -0.16400
H1283       H  0.91841259  0.11534779  0.78690517     0.11700
H1284       H  0.93561614  0.15903628  0.80696588     0.11000
H1285       H  0.83509385  0.12084241  0.82153769     0.10900
H1286       H  0.81785885  0.07699088  0.80148119     0.11500
H1287       H  0.90048020  0.19404953  0.86676255     0.11500
H1288       H  0.93076178  0.24199164  0.88411791     0.11500
H1289       H  0.97789734  0.30314846  0.84440148     0.11600
H1290       H  0.94822064  0.25505051  0.82715321     0.10500
C1291       C  0.72469667  0.75586016  0.87153957    -0.03400
C1292       C  0.73520035  0.78916351  0.87571062    -0.09100
C1293       C  0.74158833  0.81309951  0.86422318    -0.16800
C1294       C  0.73728184  0.80389129  0.84848796     0.25400
C1295       C  0.72554711  0.77050337  0.84433401    -0.18400
C1296       C  0.71915039  0.74661556  0.85577905    -0.07400
C1297       C  0.74621520  0.82868361  0.83653258    -0.13800
C1298       C  0.75454829  0.84888872  0.82623134    -0.13500
C1299       C  0.76506942  0.87287966  0.81385284     0.25300
C1300       C  0.78560861  0.87188174  0.80210681    -0.18900
C1301       C  0.79638949  0.89562780  0.79029080    -0.07400
C1302       C  0.78664421  0.92056296  0.79008542    -0.03500
C1303       C  0.76575674  0.92119818  0.80179394    -0.08800
C1304       C  0.75509199  0.89753076  0.81362030    -0.16400
H1305       H  0.73956358  0.79677539  0.88778962     0.11700
H1306       H  0.75059471  0.83885376  0.86758688     0.11000
H1307       H  0.72199185  0.76302898  0.83222335     0.10900
H1308       H  0.71064148  0.72099044  0.85232715     0.11500
H1309       H  0.79353478  0.85295829  0.80216800     0.11500
H1310       H  0.81268841  0.89489323  0.78143368     0.11500
H1311       H  0.75808901  0.94030901  0.80185434     0.11600
H1312       H  0.73926404  0.89860239  0.82264026     0.10500
C1313       C  0.87744104  0.09870524  0.71216040    -0.03400
C1314       C  0.85640703  0.09992672  0.70068505    -0.09100
C1315       C  0.86817281  0.12532211  0.68967796    -0.16800
C1316       C  0.90110033  0.14973624  0.69000267     0.25400
C1317       C  0.92216303  0.14880668  0.70151412    -0.18400
C1318       C  0.91040051  0.12339473  0.71254762    -0.07400
C1319       C  0.91330124  0.17526458  0.67832466    -0.13800
C1320       C  0.92331502  0.19616951  0.66832623    -0.13500
C1321       C  0.93557939  0.22103514  0.65634213     0.25300
C1322       C  0.95511530  0.25450966  0.66030255    -0.18900
C1323       C  0.96838374  0.27848072  0.64866758    -0.07400
C1324       C  0.96221433  0.26920417  0.63294067    -0.03500
C1325       C  0.94173712  0.23579419  0.62902995    -0.08800
C1326       C  0.92863843  0.21178413  0.64068114    -0.16400
H1327       H  0.83086169  0.08126637  0.70032040     0.11700
H1328       H  0.85162633  0.12583524  0.68087286     0.11000
H1329       H  0.94766516  0.16759911  0.70191001     0.10900
H1330       H  0.92690603  0.12292218  0.72138376     0.11500
H1331       H  0.96069813  0.26197210  0.67236142     0.11500
H1332       H  0.98443924  0.30409289  0.65187661     0.11500
H1333       H  0.93722748  0.22813605  0.61695863     0.11600
H1334       H  0.91368687  0.18594883  0.63746677     0.10500
C1335       C  0.79183781  0.92703413  0.70891248    -0.03400
C1336       C  0.80286966  0.90338380  0.70675422    -0.09100
C1337       C  0.79124378  0.88121051  0.69421627    -0.16800
C1338       C  0.76853821  0.88256840  0.68380820     0.25400
C1339       C  0.75739400  0.90601788  0.68597689    -0.18400
C1340       C  0.76905133  0.92822560  0.69846865    -0.07400
C1341       C  0.75662783  0.85986562  0.67092320    -0.13800
C1342       C  0.74694562  0.84016086  0.66037241    -0.13500
C1343       C  0.73637966  0.81520148  0.64843699     0.25300
C1344       C  0.74233600  0.82418958  0.63277438    -0.18900
C1345       C  0.73471229  0.79970354  0.62136634    -0.07400
C1346       C  0.72141920  0.76619113  0.62562705    -0.03500
C1347       C  0.71417780  0.75729653  0.64127487    -0.08800
C1348       C  0.72176296  0.78171947  0.65263063    -0.16400
H1349       H  0.82057801  0.90233204  0.71469605     0.11700
H1350       H  0.79998874  0.86310818  0.69261180     0.11000
H1351       H  0.73980129  0.90719515  0.67799527     0.10900
H1352       H  0.76041540  0.94641747  0.70000500     0.11500
H1353       H  0.75369877  0.85009010  0.62944409     0.11500
H1354       H  0.74050462  0.80694643  0.60934163     0.11500
H1355       H  0.70368257  0.73151394  0.64472310     0.11600
H1356       H  0.71706680  0.77456080  0.66471968     0.10500
C1357       C  0.80145411  0.35874668  0.52467462    -0.03400
C1358       C  0.81237150  0.33517458  0.52154062    -0.09100
C1359       C  0.83984879  0.33684325  0.52915971    -0.16800
C1360       C  0.85692355  0.36204859  0.54002505     0.25400
C1361       C  0.84702476  0.38631660  0.54284731    -0.18400
C1362       C  0.81952336  0.38476785  0.53518810    -0.07400
C1363       C  0.88296641  0.36136915  0.54902648    -0.13800
C1364       C  0.90282363  0.35825427  0.55704425    -0.13500
C1365       C  0.92431881  0.35216401  0.56717222     0.25300
C1366       C  0.92408473  0.35762114  0.58317561    -0.18900
C1367       C  0.94324842  0.34973062  0.59319425    -0.07400
C1368       C  0.96305139  0.33643581  0.58732913    -0.03500
C1369       C  0.96343946  0.33127955  0.57123889    -0.08800
C1370       C  0.94415044  0.33910109  0.56121769    -0.16400
H1371       H  0.79922173  0.31489090  0.51346609     0.11700
H1372       H  0.84722630  0.31789796  0.52688686     0.11000
H1373       H  0.86000139  0.40589748  0.55127821     0.10900
H1374       H  0.81178905  0.40325459  0.53789992     0.11500
H1375       H  0.90869774  0.36749823  0.58793885     0.11500
H1376       H  0.94251796  0.35381916  0.60555943     0.11500
H1377       H  0.97812778  0.32058635  0.56649340     0.11600
H1378       H  0.94428575  0.33445178  0.54887327     0.10500
C1379       C  0.66931608  0.03525754  0.41163891    -0.03400
C1380       C  0.69254525  0.05861665  0.42182522    -0.09100
C1381       C  0.68393989  0.07806071  0.43145462    -0.16800
C1382       C  0.65214821  0.07461465  0.43089150     0.25400
C1383       C  0.62884155  0.05128096  0.42077446    -0.18400
C1384       C  0.63737076  0.03164419  0.41120765    -0.07400
C1385       C  0.64413682  0.09605728  0.44028045    -0.13800
C1386       C  0.64011993  0.11594837  0.44805871    -0.13500
C1387       C  0.63899439  0.14188865  0.45727117     0.25300
C1388       C  0.61397680  0.15071059  0.45513062    -0.18900
C1389       C  0.61451874  0.17754885  0.46341157    -0.07400
C1390       C  0.64019596  0.19594514  0.47391945    -0.03500
C1391       C  0.66477629  0.18625946  0.47619201    -0.08800
C1392       C  0.66417354  0.15956115  0.46792494    -0.16400
H1393       H  0.71733745  0.06185897  0.42225148     0.11700
H1394       H  0.70221336  0.09612412  0.43918470     0.11000
H1395       H  0.60426202  0.04857855  0.42013471     0.10900
H1396       H  0.61929301  0.01411307  0.40323899     0.11500
H1397       H  0.59444446  0.13730797  0.44683497     0.11500
H1398       H  0.59537958  0.18442720  0.46126860     0.11500
H1399       H  0.68506442  0.19982643  0.48409091     0.11600
H1400       H  0.68378025  0.15313000  0.46962202     0.10500
C1401       C  0.54107556  0.20592889  0.52598915    -0.03400
C1402       C  0.54205304  0.19550597  0.54124049    -0.09100
C1403       C  0.51473695  0.16872977  0.54755979    -0.16800
C1404       C  0.48602241  0.15201913  0.53878376     0.25400
C1405       C  0.48487959  0.16168845  0.52347957    -0.18400
C1406       C  0.51237243  0.18846108  0.51706170    -0.07400
C1407       C  0.45768686  0.12585345  0.54594256    -0.13800
C1408       C  0.43600388  0.10552474  0.55373207    -0.13500
C1409       C  0.41275121  0.08339028  0.56471326     0.25300
C1410       C  0.38251906  0.05779022  0.55974054    -0.18900
C1411       C  0.35991580  0.03687064  0.57063620    -0.07400
C1412       C  0.36746671  0.04139381  0.58657762    -0.03500
C1413       C  0.39797113  0.06698795  0.59144075    -0.08800
C1414       C  0.42048296  0.08784608  0.58056029    -0.16400
H1415       H  0.56385358  0.20826057  0.54837048     0.11700
H1416       H  0.51584005  0.16138611  0.55941131     0.11000
H1417       H  0.46266948  0.14891642  0.51662027     0.10900
H1418       H  0.51087431  0.19604210  0.50531174     0.11500
H1419       H  0.37629666  0.05425483  0.54749828     0.11500
H1420       H  0.33629040  0.01765676  0.56667093     0.11500
H1421       H  0.40421852  0.07093365  0.60367451     0.11600
H1422       H  0.44383196  0.10762715  0.58451202     0.10500
C1423       C  0.96661694  0.62462743  0.41357426    -0.03400
C1424       C  0.94157934  0.59375195  0.40854068    -0.09100
C1425       C  0.91979092  0.57129458  0.41921775    -0.16800
C1426       C  0.92263739  0.57949830  0.43503642     0.25400
C1427       C  0.94789447  0.61000610  0.44018833    -0.18400
C1428       C  0.96984646  0.63248370  0.42950102    -0.07400
C1429       C  0.89870416  0.55691372  0.44572818    -0.13800
C1430       C  0.87662978  0.53633790  0.45330236    -0.13500
C1431       C  0.84823739  0.50957968  0.46023595     0.25300
C1432       C  0.84113889  0.51002444  0.47603125    -0.18900
C1433       C  0.81299262  0.48380839  0.48238870    -0.07400
C1434       C  0.79162465  0.45701079  0.47295580    -0.03500
C1435       C  0.79918400  0.45693368  0.45711841    -0.08800
C1436       C  0.82722506  0.48295410  0.45085173    -0.16400
H1437       H  0.93860780  0.58731924  0.39630458     0.11700
H1438       H  0.90030940  0.54778393  0.41509799     0.11000
H1439       H  0.95021064  0.61667217  0.45238918     0.10900
H1440       H  0.98866299  0.65639724  0.43357565     0.11500
H1441       H  0.85723678  0.53060881  0.48339312     0.11500
H1442       H  0.80783776  0.48465014  0.49460262     0.11500
H1443       H  0.78346825  0.43668435  0.44950360     0.11600
H1444       H  0.83246572  0.48235083  0.43862066     0.10500
C1445       C  0.52622291  0.31028182  0.47485963    -0.03400
C1446       C  0.51471958  0.33321381  0.47845033    -0.09100
C1447       C  0.48583611  0.33021516  0.47174365    -0.16800
C1448       C  0.46791194  0.30430981  0.46132210     0.25400
C1449       C  0.47872069  0.28093865  0.45790496    -0.18400
C1450       C  0.50759599  0.28379200  0.46466869    -0.07400
C1451       C  0.43956365  0.30288198  0.45349396    -0.13800
C1452       C  0.41722448  0.30267544  0.44605723    -0.13500
C1453       C  0.39239378  0.30261590  0.43579781     0.25300
C1454       C  0.36237489  0.29871677  0.44154404    -0.18900
C1455       C  0.33796275  0.29696761  0.43126511    -0.07400
C1456       C  0.34343184  0.29939153  0.41512035    -0.03500
C1457       C  0.37396535  0.30411865  0.40955632    -0.08800
C1458       C  0.39815501  0.30565081  0.41979491    -0.16400
H1459       H  0.52824274  0.35378501  0.48632954     0.11700
H1460       H  0.47781728  0.34849313  0.47447594     0.11000
H1461       H  0.46514961  0.26084492  0.44979318     0.10900
H1462       H  0.51572904  0.26576178  0.46162531     0.11500
H1463       H  0.35757718  0.29632103  0.45391088     0.11500
H1464       H  0.31450774  0.29268094  0.43589008     0.11500
H1465       H  0.37893081  0.30614646  0.39720792     0.11600
H1466       H  0.42125125  0.30873421  0.41518820     0.10500
C1467       C  0.69174240  0.47638225  0.52321480    -0.03400
C1468       C  0.66928517  0.48837501  0.51989759    -0.09100
C1469       C  0.67300913  0.51791603  0.52661314    -0.16800
C1470       C  0.69920014  0.53599760  0.53672886     0.25400
C1471       C  0.72241476  0.52503293  0.53964330    -0.18400
C1472       C  0.71881813  0.49548873  0.53288132    -0.07400
C1473       C  0.70088281  0.56447197  0.54486031    -0.13800
C1474       C  0.70069965  0.58687784  0.55231245    -0.13500
C1475       C  0.69969323  0.61221858  0.56202525     0.25300
C1476       C  0.68844239  0.60467795  0.57731985    -0.18900
C1477       C  0.68896200  0.62945346  0.58710470    -0.07400
C1478       C  0.70049685  0.66202408  0.58166906    -0.03500
C1479       C  0.71099121  0.66932982  0.56620405    -0.08800
C1480       C  0.71063328  0.64451691  0.55642872    -0.16400
H1481       H  0.64837761  0.47457567  0.51236040     0.11700
H1482       H  0.65494469  0.52618723  0.52423035     0.11000
H1483       H  0.74281849  0.53884866  0.54745651     0.10900
H1484       H  0.73662089  0.48709235  0.53562722     0.11500
H1485       H  0.67989328  0.57979579  0.58177892     0.11500
H1486       H  0.68100960  0.62342810  0.59903217     0.11500
H1487       H  0.72053263  0.69443820  0.56189247     0.11600
H1488       H  0.71947889  0.65065850  0.54462959     0.10500
C1489       C  0.34540512  0.02498787  0.91977961    -0.03400
C1490       C  0.37530119  0.02389224  0.91971145    -0.09100
C1491       C  0.40089391  0.04469455  0.92958123    -0.16800
C1492       C  0.39683054  0.06669201  0.93965420     0.25400
C1493       C  0.36666848  0.06707024  0.94016115    -0.18400
C1494       C  0.34110860  0.04640215  0.93022860    -0.07400
C1495       C  0.42444246  0.09065833  0.94845632    -0.13800
C1496       C  0.44854184  0.11207534  0.95472164    -0.13500
C1497       C  0.47790963  0.13903900  0.96107539     0.25300
C1498       C  0.50439515  0.15763491  0.95130577    -0.18900
C1499       C  0.53226303  0.18502916  0.95714677    -0.07400
C1500       C  0.53410496  0.19427055  0.97289638    -0.03500
C1501       C  0.50768737  0.17488045  0.98273084    -0.08800
C1502       C  0.47972885  0.14752092  0.97682648    -0.16400
H1503       H  0.37926589  0.00794108  0.91157737     0.11700
H1504       H  0.42420028  0.04438901  0.92899778     0.11000
H1505       H  0.36326547  0.08406757  0.94786034     0.10900
H1506       H  0.31824742  0.04766424  0.93040247     0.11500
H1507       H  0.50331588  0.15125707  0.93910171     0.11500
H1508       H  0.55224234  0.19914659  0.94927200     0.11500
H1509       H  0.50830307  0.18124733  0.99490265     0.11600
H1510       H  0.45936098  0.13329339  0.98449383     0.10500
C1511       C  0.52322917  0.30034234  0.02670541    -0.03400
C1512       C  0.51563314  0.32692115  0.02683089    -0.09100
C1513       C  0.48844192  0.32457829  0.03495780    -0.16800
C1514       C  0.46823041  0.29567744  0.04309663     0.25400
C1515       C  0.47509298  0.26880035  0.04284280    -0.18400
C1516       C  0.50240854  0.27108939  0.03471442    -0.07400
C1517       C  0.44153321  0.29452930  0.05225675    -0.13800
C1518       C  0.42065205  0.29556887  0.06034784    -0.13500
C1519       C  0.39727496  0.29815951  0.07063953     0.25300
C1520       C  0.40510197  0.30549556  0.08638463    -0.18900
C1521       C  0.38241611  0.30735641  0.09654088    -0.07400
C1522       C  0.35174763  0.30228476  0.09104777    -0.03500
C1523       C  0.34412117  0.29548369  0.07520526    -0.08800
C1524       C  0.36678858  0.29335785  0.06504750    -0.16400
H1525       H  0.53107037  0.34990851  0.02089225     0.11700
H1526       H  0.48351261  0.34559977  0.03510708     0.11000
H1527       H  0.45967259  0.24629764  0.04913791     0.10900
H1528       H  0.50748553  0.25018787  0.03490659     0.11500
H1529       H  0.42860808  0.30938373  0.09085173     0.11500
H1530       H  0.38860777  0.31243372  0.10874185     0.11500
H1531       H  0.32038890  0.29103272  0.07081487     0.11600
H1532       H  0.36043081  0.28765006  0.05289509     0.10500
C1533       C  0.79728748  0.35125351  0.97453104    -0.03400
C1534       C  0.80777333  0.32686623  0.97561001    -0.09100
C1535       C  0.83701480  0.33172348  0.96863597    -0.16800
C1536       C  0.85622055  0.36095420  0.96047562     0.25400
C1537       C  0.84646868  0.38570932  0.95962735    -0.18400
C1538       C  0.81724718  0.38096057  0.96662553    -0.07400
C1539       C  0.88417380  0.36408482  0.95181235    -0.13800
C1540       C  0.90511345  0.36425367  0.94339792    -0.13500
C1541       C  0.92675683  0.36144165  0.93216465     0.25300
C1542       C  0.92307685  0.36661032  0.91642322    -0.18900
C1543       C  0.94150357  0.36053803  0.90521360    -0.07400
C1544       C  0.96398976  0.34946016  0.90965127    -0.03500
C1545       C  0.96814376  0.34500932  0.92548306    -0.08800
C1546       C  0.94956154  0.35094074  0.93669323    -0.16400
H1547       H  0.79312355  0.30374174  0.98161252     0.11700
H1548       H  0.84420757  0.31228833  0.96927131     0.11000
H1549       H  0.86101220  0.40832062  0.95322321     0.10900
H1550       H  0.80994570  0.40023251  0.96552357     0.11500
H1551       H  0.90533160  0.37448984  0.91278252     0.11500
H1552       H  0.93791170  0.36399227  0.89305581     0.11500
H1553       H  0.98504777  0.33602807  0.92909875     0.11600
H1554       H  0.95235246  0.34651241  0.94882160     0.10500
C1555       C  0.63874001  0.18977918  0.02901220    -0.03400
C1556       C  0.60930840  0.16774796  0.03640215    -0.09100
C1557       C  0.60671000  0.13949012  0.04405612    -0.16800
C1558       C  0.63344613  0.13287002  0.04445551     0.25400
C1559       C  0.66276723  0.15465119  0.03717969    -0.18400
C1560       C  0.66542471  0.18278737  0.02953375    -0.07400
C1561       C  0.63164106  0.10458969  0.05276029    -0.13800
C1562       C  0.63377852  0.08304480  0.06002310    -0.13500
C1563       C  0.64134175  0.06095284  0.06912073     0.25300
C1564       C  0.67392098  0.06689861  0.07001786    -0.18900
C1565       C  0.68257709  0.04803538  0.07988475    -0.07400
C1566       C  0.65877461  0.02285438  0.08905273    -0.03500
C1567       C  0.62583749  0.01615327  0.08774496    -0.08800
C1568       C  0.61716778  0.03515171  0.07782182    -0.16400
H1569       H  0.58831221  0.17232631  0.03628567     0.11700
H1570       H  0.58393689  0.12294468  0.04973374     0.11000
H1571       H  0.68374030  0.15000378  0.03749881     0.10900
H1572       H  0.68854830  0.19915802  0.02409138     0.11500
H1573       H  0.69286070  0.08678701  0.06338891     0.11500
H1574       H  0.70808961  0.05363824  0.08066085     0.11500
H1575       H  0.60711635  0.99718130  0.09483861     0.11600
H1576       H  0.59187338  0.03037438  0.07728771     0.10500
C1577       C  0.95929646  0.62802567  0.08227167    -0.03400
C1578       C  0.93590974  0.59659712  0.08745958    -0.09100
C1579       C  0.91432548  0.57292773  0.07699050    -0.16800
C1580       C  0.91560437  0.58031228  0.06116769     0.25400
C1581       C  0.93932739  0.61134968  0.05580288    -0.18400
C1582       C  0.96109922  0.63514027  0.06631166    -0.07400
C1583       C  0.89117064  0.55645147  0.05082905    -0.13800
C1584       C  0.86840510  0.53494193  0.04377358    -0.13500
C1585       C  0.83939850  0.50750873  0.03733186     0.25300
C1586       C  0.83461522  0.50299183  0.02124220    -0.18900
C1587       C  0.80673318  0.47550105  0.01527903    -0.07400
C1588       C  0.78330577  0.45214725  0.02536530    -0.03500
C1589       C  0.78813303  0.45743529  0.04150289    -0.08800
C1590       C  0.81589861  0.48481317  0.04739822    -0.16400
H1591       H  0.93411844  0.59054847  0.09969238     0.11700
H1592       H  0.89611749  0.54906137  0.08130136     0.11000
H1593       H  0.94051187  0.61741056  0.04359114     0.10900
H1594       H  0.97872833  0.65931251  0.06207163     0.11500
H1595       H  0.85254799  0.52049014  0.01332099     0.11500
H1596       H  0.80374268  0.47235679  0.00280489     0.11500
H1597       H  0.77062154  0.44021604  0.04964864     0.11600
H1598       H  0.81920074  0.48809552  0.05986566     0.10500
C1599       C  0.68483145  0.46400490  0.97539931    -0.03400
C1600       C  0.66209905  0.47599026  0.97794987    -0.09100
C1601       C  0.66626571  0.50534968  0.97092595    -0.16800
C1602       C  0.69313679  0.52319271  0.96122751     0.25400
C1603       C  0.71624020  0.51185941  0.95885301    -0.18400
C1604       C  0.71221352  0.48257367  0.96591539    -0.07400
C1605       C  0.69612390  0.55216888  0.95314032    -0.13800
C1606       C  0.69791265  0.57532780  0.94565531    -0.13500
C1607       C  0.69974023  0.60155480  0.93570182     0.25300
C1608       C  0.69491991  0.59586653  0.91968747    -0.18900
C1609       C  0.69772657  0.62129795  0.90980737    -0.07400
C1610       C  0.70521481  0.65279274  0.91580224    -0.03500
C1611       C  0.70959895  0.65831621  0.93191874    -0.08800
C1612       C  0.70687251  0.63280119  0.94181815    -0.16400
H1613       H  0.64081692  0.46245576  0.98520871     0.11700
H1614       H  0.64818798  0.51381235  0.97284587     0.11000
H1615       H  0.73708195  0.52534637  0.95132208     0.10900
H1616       H  0.73012706  0.47407020  0.96362558     0.11500
H1617       H  0.68934678  0.57183535  0.91480428     0.11500
H1618       H  0.69424719  0.61648576  0.89743209     0.11500
H1619       H  0.71581278  0.68252117  0.93677378     0.11600
H1620       H  0.71072463  0.63755584  0.95418540     0.10500
loop_ 
_geom_bond_atom_site_label_1 
_geom_bond_atom_site_label_2 
_geom_bond_distance 
_geom_bond_site_symmetry_2 
_ccdc_geom_bond_type 
Zr1           O2   2.441       .  S
Zr1           O3   2.437   1_554  S
Zr1           O4   2.458       .  S
Zr1           O7   2.452       .  S
Zr1           O9   2.389   1_554  S
Zr1          O10   2.390   1_554  S
Zr1          O11   2.412       .  S
Zr1          O12   2.403       .  S
O2           H58   0.990       .  S
O2           H66   0.990       .  S
O3           C23   1.284       .  A
O4           C25   1.288       .  A
O5          Zr15   2.422   1_554  S
O5           C24   1.284       .  A
O6          Zr14   2.421   1_554  S
O6           C25   1.283       .  A
O7           C24   1.288       .  A
O8          Zr16   2.421       .  S
O8           C23   1.282       .  A
O9          Zr14   2.398       .  S
O9          Zr16   2.384       .  S
O10         Zr15   2.391       .  S
O10         Zr16   2.380       .  S
O10          H45   0.947       .  S
O11         Zr14   2.402   1_554  S
O11         Zr31   2.395       .  S
O11          H48   0.962       .  S
O12         Zr15   2.395   1_554  S
O12         Zr31   2.392       .  S
Zr13         O38   2.447       .  S
Zr13         O32   2.435   1_556  S
Zr13         O40   2.433       .  S
Zr13         O28   2.436       .  S
Zr13         O19   2.405       .  S
Zr13         O20   2.406       .  S
Zr13         O21   2.379   1_556  S
Zr13         O22   2.383   1_556  S
Zr14         O33   2.437   1_556  S
Zr14         O26   2.435       .  S
Zr14         O27   2.434       .  S
Zr14         O20   2.394       .  S
Zr14         O21   2.386   1_556  S
Zr15         O17   2.435   1_556  S
Zr15         O39   2.436       .  S
Zr15         O41   2.430       .  S
Zr15         O19   2.389       .  S
Zr15         O22   2.388   1_556  S
Zr16         O42   2.437       .  S
Zr16         O43   2.436       .  S
Zr16         O18   2.436       .  S
Zr16         O19   2.396       .  S
Zr16         O20   2.398       .  S
O17          H54   0.990       .  S
O18          H49   0.990       .  S
O18          H63   0.990       .  S
O20          H46   0.967       .  S
O21         Zr31   2.375       .  S
O22         Zr31   2.373       .  S
O22          H47   0.963       .  S
C23        C1500   1.484       .  S
C24        C1555   1.491       .  S
C25        C1511   1.490       .  S
O26          H62   0.990       .  S
O27          C29   1.286       .  A
O28          C29   1.285       .  A
C29        C1599   1.487       .  S
O30         Zr31   2.439       .  S
O30          H59   0.990       .  S
Zr31         O34   2.435       .  S
Zr31         O35   2.440       .  S
Zr31         O36   2.425       .  S
O32          C37   1.285       .  A
O33          H50   0.990       .  S
O33          H65   0.990       .  S
O34          H51   0.990       .  S
O35          H55   0.990       .  S
O35          H64   0.990       .  S
O36          C37   1.284       .  A
C37        C1588   1.487       .  S
O38          H57   0.990       .  S
O38          H61   0.990       .  S
O39          H53   0.990       .  S
O39          H60   0.990       .  S
O40          C44   1.285       .  A
O41          C44   1.285       .  A
O42          H52   0.989       .  S
O43          H56   0.990       .  S
C44        C1533   1.485       .  S
Zr67         O68   2.439       .  S
Zr67         O69   2.426       .  S
Zr67         O70   2.458       .  S
Zr67         O73   2.448       .  S
Zr67         O75   2.390       .  S
Zr67         O76   2.386       .  S
Zr67         O77   2.407       .  S
Zr67         O78   2.404       .  S
O68         H124   0.990       .  S
O68         H132   0.990       .  S
O69          C89   1.282       .  A
O70          C91   1.289       .  A
O71         Zr81   2.418       .  S
O71          C90   1.283       .  A
O72         Zr80   2.415       .  S
O72          C91   1.282       .  A
O73          C90   1.288       .  A
O74         Zr82   2.417       .  S
O74          C89   1.281       .  A
O75         Zr80   2.392       .  S
O75         Zr82   2.380       .  S
O76         Zr81   2.387       .  S
O76         Zr82   2.369       .  S
O76         H111   0.966       .  S
O77         Zr80   2.398       .  S
O77         Zr97   2.388       .  S
O77         H114   0.965       .  S
O78         Zr81   2.394       .  S
O78         Zr97   2.393       .  S
Zr79        O104   2.439       .  S
Zr79         O98   2.437       .  S
Zr79        O106   2.446       .  S
Zr79         O94   2.444       .  S
Zr79         O85   2.406       .  S
Zr79         O86   2.408       .  S
Zr79         O87   2.380       .  S
Zr79         O88   2.383       .  S
Zr80         O99   2.437       .  S
Zr80         O92   2.434       .  S
Zr80         O93   2.417       .  S
Zr80         O86   2.392       .  S
Zr80         O87   2.382       .  S
Zr81         O83   2.434       .  S
Zr81        O105   2.437       .  S
Zr81        O107   2.419       .  S
Zr81         O85   2.394       .  S
Zr81         O88   2.389       .  S
Zr82        O108   2.435       .  S
Zr82        O109   2.435       .  S
Zr82         O84   2.438       .  S
Zr82         O85   2.398       .  S
Zr82         O86   2.391       .  S
O83         H120   0.990       .  S
O84         H115   0.991       .  S
O84         H129   0.990       .  S
O86         H112   0.967       .  S
O87         Zr97   2.376       .  S
O88         Zr97   2.374       .  S
O88         H113   0.964       .  S
C89        C1401   1.477       .  S
C90        C1445   1.487       .  S
C91        C1390   1.488       .  S
O92         H128   0.989       .  S
O93          C95   1.283       .  A
O94          C95   1.287       .  A
C95        C1357   1.485       .  S
O96         Zr97   2.438       .  S
O96         H125   0.991       .  S
Zr97        O100   2.437       .  S
Zr97        O101   2.439       .  S
Zr97        O102   2.411       .  S
O98         C103   1.285       .  A
O99         H116   0.990       .  S
O99         H131   0.990       .  S
O100        H117   0.990       .  S
O101        H121   0.990       .  S
O101        H130   0.989       .  S
O102        C103   1.281       .  A
C103       C1434   1.482       .  S
O104        H123   0.990       .  S
O104        H127   0.990       .  S
O105        H119   0.990       .  S
O105        H126   0.990       .  S
O106        C110   1.287       .  A
O107        C110   1.283       .  A
O108        H118   0.990       .  S
O109        H122   0.990       .  S
C110       C1467   1.485       .  S
N133        C138   1.354       .  A
N133        C137   1.352   1_545  A
N133        H165   1.038       .  S
N134        C141   1.352       .  A
N134        C142   1.352       .  A
N135        C140   1.353       .  A
N135        C139   1.354   1_545  A
N135        H166   1.039       .  S
N136        C143   1.352       .  A
N136        C144   1.351       .  A
C137        C145   1.388       .  A
C137        C153   1.414       .  A
C138        C154   1.415       .  A
C138        C146   1.387       .  A
C139        C147   1.388       .  A
C139        C156   1.417       .  A
C140        C155   1.412       .  A
C140        C148   1.385       .  A
C141        C153   1.414       .  A
C141        C149   1.387       .  A
C142        C156   1.414       .  A
C142        C150   1.386       .  A
C143        C151   1.386       .  A
C143        C154   1.412       .  A
C144        C152   1.386       .  A
C144        C155   1.411       .  A
C145        C146   1.376   1_565  A
C145        H157   1.083       .  S
C146        H158   1.082       .  S
C147        C148   1.374   1_565  A
C147        H159   1.082       .  S
C148        H160   1.082       .  S
C149        C150   1.373       .  A
C149        H161   1.082       .  S
C150        H162   1.082       .  S
C151        C152   1.371       .  A
C151        H163   1.082       .  S
C152        H164   1.082       .  S
C153       C1335   1.481       .  S
C154       C1313   1.487       .  S
C155       C1269   1.483       .  S
C156       C1302   1.489       .  S
N167        C172   1.353       .  A
N167        C171   1.353       .  A
N167        H199   1.040       .  S
N168        C175   1.351       .  A
N168        C176   1.351       .  A
N169        C174   1.353       .  A
N169        C173   1.352       .  A
N169        H200   1.039       .  S
N170        C177   1.351       .  A
N170        C178   1.351       .  A
C171        C179   1.387       .  A
C171        C187   1.414       .  A
C172        C188   1.414       .  A
C172        C180   1.386       .  A
C173        C181   1.387       .  A
C173        C190   1.414       .  A
C174        C189   1.415       .  A
C174        C182   1.387       .  A
C175        C187   1.412       .  A
C175        C183   1.386       .  A
C176        C190   1.413       .  A
C176        C184   1.386       .  A
C177        C185   1.386       .  A
C177        C188   1.412       .  A
C178        C186   1.386       .  A
C178        C189   1.412       .  A
C179        C180   1.375       .  A
C179        H191   1.082       .  S
C180        H192   1.082       .  S
C181        C182   1.376       .  A
C181        H193   1.082       .  S
C182        H194   1.082       .  S
C183        C184   1.373       .  A
C183        H195   1.082       .  S
C184        H196   1.082       .  S
C185        C186   1.373       .  A
C185        H197   1.082       .  S
C186        H198   1.082       .  S
C187       C1247   1.487       .  S
C188       C1192   1.489       .  S
C189       C1214   1.486       .  S
C190       C1225   1.484       .  S
N201        C206   1.353       .  A
N201        C205   1.355   1_455  A
N201        H233   1.039       .  S
N202        C209   1.352       .  A
N202        C210   1.350       .  A
N203        C208   1.354       .  A
N203        C207   1.353   1_455  A
N203        H234   1.041       .  S
N204        C211   1.350       .  A
N204        C212   1.351       .  A
C205        C213   1.387       .  A
C205        C221   1.416       .  A
C206        C222   1.414       .  A
C206        C214   1.387       .  A
C207        C215   1.386       .  A
C207        C224   1.412       .  A
C208        C223   1.413       .  A
C208        C216   1.387       .  A
C209        C221   1.413       .  A
C209        C217   1.386       .  A
C210        C224   1.411       .  A
C210        C218   1.386       .  A
C211        C219   1.386       .  A
C211        C222   1.411       .  A
C212        C220   1.387       .  A
C212        C223   1.413       .  A
C213        C214   1.372   1_655  A
C213        H225   1.082       .  S
C214        H226   1.082       .  S
C215        C216   1.372   1_655  A
C215        H227   1.082       .  S
C216        H228   1.082       .  S
C217        C218   1.372       .  A
C217        H229   1.082       .  S
C218        H230   1.082       .  S
C219        C220   1.372       .  A
C219        H231   1.082       .  S
C220        H232   1.082       .  S
C221       C1093   1.489       .  S
C222       C1115   1.480       .  S
C223       C1137   1.488       .  S
C224       C1170   1.483       .  S
C235       C1368   1.485       .  S
C235        C236   1.420   1_655  A
C235        C240   1.410       .  A
C236       C1082   1.487       .  S
C236        C237   1.405       .  A
C237        C238   1.397       .  A
C237        H242   1.085       .  S
C238       C1258   1.479       .  S
C238        C239   1.411   1_455  A
C239       C1324   1.482       .  S
C239        C240   1.402       .  A
C240        H241   1.084       .  S
C243       C1049   1.481       .  S
C243        C244   1.415   1_565  A
C243        C248   1.402       .  A
C244       C1412   1.480       .  S
C244        C245   1.403       .  A
C245        C246   1.400       .  A
C245        H250   1.085       .  S
C246       C1236   1.481       .  S
C246        C247   1.414   1_545  A
C247       C1148   1.478       .  S
C247        C248   1.400       .  A
C248        H249   1.085       .  S
C251       C1610   1.486       .  S
C251        C252   1.417       .  A
C251        C256   1.405       .  A
C252       C1038   1.485       .  S
C252        C253   1.408       .  A
C253        C254   1.404       .  A
C253        H258   1.084       .  S
C254       C1291   1.486       .  S
C254        C255   1.414       .  A
C255       C1104   1.483       .  S
C255        C256   1.402       .  A
C256        H257   1.085       .  S
C259       C1016   1.479       .  S
C259        C260   1.415       .  A
C259        C264   1.403       .  A
C260       C1478   1.480       .  S
C260        C261   1.405       .  A
C261        C262   1.401       .  A
C261        H266   1.084       .  S
C262       C1159   1.484       .  S
C262        C263   1.413       .  A
C263       C1346   1.477       .  S
C263        C264   1.397       .  A
C264        H265   1.085       .  S
C267       C1489   1.481       .  S
C267        C268   1.417   1_545  A
C267        C272   1.409       .  A
C268        C983   1.484       .  S
C268        C269   1.402       .  A
C269        C270   1.396       .  A
C269        H274   1.085       .  S
C270       C1126   1.475       .  S
C270        C271   1.411   1_565  A
C271       C1203   1.484       .  S
C271        C272   1.403       .  A
C272        H273   1.084       .  S
C275        C961   1.483       .  S
C275        C276   1.415   1_455  A
C275        C280   1.405       .  A
C276       C1544   1.480       .  S
C276        C277   1.405       .  A
C277        C278   1.402       .  A
C277        H282   1.084       .  S
C278       C1280   1.482       .  S
C278        C279   1.413   1_655  A
C279       C1181   1.478       .  S
C279        C280   1.400       .  A
C280        H281   1.085       .  S
Zr283       O284   2.440       .  S
Zr283       O285   2.449       .  S
Zr283       O286   2.445       .  S
Zr283       O289   2.443       .  S
Zr283       O291   2.380       .  S
Zr283       O292   2.385       .  S
Zr283       O293   2.409       .  S
Zr283       O294   2.404       .  S
O284        H340   0.990       .  S
O284        H348   0.990       .  S
O285        C305   1.287       .  A
O286        C307   1.286       .  A
O287       Zr297   2.420       .  S
O287        C306   1.284       .  A
O288       Zr296   2.406       .  S
O288        C307   1.280       .  A
O289        C306   1.287       .  A
O290       Zr298   2.414       .  S
O290        C305   1.281       .  A
O291       Zr296   2.389       .  S
O291       Zr298   2.378       .  S
O292       Zr297   2.390       .  S
O292       Zr298   2.377       .  S
O292        H327   0.953       .  S
O293       Zr296   2.394       .  S
O293       Zr313   2.405       .  S
O293        H330   0.966       .  S
O294       Zr297   2.384       .  S
O294       Zr313   2.396       .  S
Zr295       O320   2.440       .  S
Zr295       O314   2.442       .  S
Zr295       O322   2.436       .  S
Zr295       O310   2.452       .  S
Zr295       O301   2.403       .  S
Zr295       O302   2.408       .  S
Zr295       O303   2.378       .  S
Zr295       O304   2.382       .  S
Zr296       O315   2.438       .  S
Zr296       O308   2.433       .  S
Zr296       O309   2.409       .  S
Zr296       O302   2.399       .  S
Zr296       O303   2.390       .  S
Zr297       O299   2.434       .  S
Zr297       O321   2.438       .  S
Zr297       O323   2.410       .  S
Zr297       O301   2.391       .  S
Zr297       O304   2.385       .  S
Zr298       O324   2.436       .  S
Zr298       O325   2.436       .  S
Zr298       O300   2.437       .  S
Zr298       O301   2.384       .  S
Zr298       O302   2.400       .  S
O299        H336   0.990       .  S
O300        H331   0.991       .  S
O300        H345   0.990       .  S
O302        H328   0.962       .  S
O303       Zr313   2.376       .  S
O304       Zr313   2.373       .  S
O304        H329   0.965       .  S
C305        C950   1.488       .  S
C306       C1060   1.487       .  S
C307       C1005   1.480       .  S
O308        H344   0.990       .  S
O309        C311   1.281       .  A
O310        C311   1.287       .  A
C311        C895   1.484       .  S
O312       Zr313   2.439       .  S
O312        H341   0.990       .  S
Zr313       O316   2.436       .  S
Zr313       O317   2.441       .  S
Zr313       O318   2.428       .  S
O314        C319   1.285       .  A
O315        H332   0.990       .  S
O315        H347   0.990       .  S
O316        H333   0.990       .  S
O317        H337   0.990       .  S
O317        H346   0.990       .  S
O318        C319   1.284       .  A
C319       C1071   1.490       .  S
O320        H339   0.990       .  S
O320        H343   0.990       .  S
O321        H335   0.990       .  S
O321        H342   0.990       .  S
O322        C326   1.286       .  A
O323        C326   1.282       .  A
O324        H334   0.990       .  S
O325        H338   0.990       .  S
C326        C928   1.480       .  S
Zr349       O350   2.441       .  S
Zr349       O351   2.442   1_556  S
Zr349       O352   2.438       .  S
Zr349       O355   2.452       .  S
Zr349       O357   2.383   1_556  S
Zr349       O358   2.378   1_556  S
Zr349       O359   2.412       .  S
Zr349       O360   2.401       .  S
O350        H406   0.991       .  S
O350        H414   0.990       .  S
O351        C371   1.285       .  A
O352        C373   1.285       .  A
O353       Zr363   2.405   1_556  S
O353        C372   1.280       .  A
O354       Zr362   2.428       .  S
O354        C373   1.284       .  A
O355        C372   1.288       .  A
O356       Zr364   2.420       .  S
O356        C371   1.282       .  A
O357       Zr362   2.392   1_554  S
O357       Zr364   2.376       .  S
O358       Zr363   2.387       .  S
O358       Zr364   2.377       .  S
O358        H393   0.955       .  S
O359       Zr362   2.399       .  S
O359       Zr379   2.392       .  S
O359        H396   0.968       .  S
O360       Zr363   2.387   1_556  S
O360       Zr379   2.398       .  S
Zr361       O386   2.440       .  S
Zr361       O380   2.452   1_554  S
Zr361       O388   2.461       .  S
Zr361       O376   2.462       .  S
Zr361       O367   2.408       .  S
Zr361       O368   2.416       .  S
Zr361       O369   2.385   1_554  S
Zr361       O370   2.384   1_554  S
Zr362       O381   2.436       .  S
Zr362       O374   2.434   1_556  S
Zr362       O375   2.414   1_556  S
Zr362       O368   2.405   1_556  S
Zr362       O369   2.394       .  S
Zr363       O365   2.436   1_554  S
Zr363       O387   2.439       .  S
Zr363       O389   2.393       .  S
Zr363       O367   2.389       .  S
Zr363       O370   2.387   1_554  S
Zr364       O390   2.435       .  S
Zr364       O391   2.436       .  S
Zr364       O366   2.436       .  S
Zr364       O367   2.395       .  S
Zr364       O368   2.392       .  S
O365        H402   0.990       .  S
O366        H397   0.990       .  S
O366        H411   0.990       .  S
O368        H394   0.965       .  S
O369       Zr379   2.372       .  S
O370       Zr379   2.376       .  S
O370        H395   0.968       .  S
C371        C862   1.488       .  S
C372        C994   1.485       .  S
C373        C972   1.484       .  S
O374        H410   0.990       .  S
O375        C377   1.282       .  A
O376        C377   1.290       .  A
C377        C840   1.486       .  S
O378       Zr379   2.438       .  S
O378        H407   0.990       .  S
Zr379       O382   2.437       .  S
Zr379       O383   2.438       .  S
Zr379       O384   2.415       .  S
O380        C385   1.287       .  A
O381        H398   0.990       .  S
O381        H413   0.990       .  S
O382        H399   0.990       .  S
O383        H403   0.990       .  S
O383        H412   0.990       .  S
O384        C385   1.281       .  A
C385       C1027   1.490       .  S
O386        H405   0.990       .  S
O386        H409   0.990       .  S
O387        H401   0.990       .  S
O387        H408   0.990       .  S
O388        C392   1.289       .  A
O389        C392   1.278       .  A
O390        H400   0.990       .  S
O391        H404   0.990       .  S
C392        C884   1.485       .  S
N415        C420   1.355   1_655  A
N415        C419   1.355       .  A
N415        H447   1.039       .  S
N416        C423   1.353       .  A
N416        C424   1.352       .  A
N417        C422   1.354   1_655  A
N417        C421   1.354       .  A
N417        H448   1.039       .  S
N418        C425   1.353       .  A
N418        C426   1.352       .  A
C419        C427   1.387       .  A
C419        C435   1.419       .  A
C420        C436   1.418       .  A
C420        C428   1.387       .  A
C421        C429   1.388       .  A
C421        C438   1.417       .  A
C422        C437   1.414       .  A
C422        C430   1.386       .  A
C423        C435   1.417       .  A
C423        C431   1.387       .  A
C424        C438   1.414       .  A
C424        C432   1.386       .  A
C425        C433   1.386       .  A
C425        C436   1.415       .  A
C426        C434   1.386       .  A
C426        C437   1.413       .  A
C427        C428   1.375   1_655  A
C427        H439   1.082       .  S
C428        H440   1.082       .  S
C429        C430   1.376   1_655  A
C429        H441   1.082       .  S
C430        H442   1.082       .  S
C431        C432   1.373       .  A
C431        H443   1.082       .  S
C432        H444   1.082       .  S
C433        C434   1.372       .  A
C433        H445   1.082       .  S
C434        H446   1.082       .  S
C435        C741   1.493       .  S
C436        C785   1.492       .  S
C437        C818   1.484       .  S
C438        C774   1.486       .  S
N449        C454   1.353       .  A
N449        C453   1.353       .  A
N449        H481   1.040       .  S
N450        C457   1.350       .  A
N450        C458   1.351       .  A
N451        C456   1.351       .  A
N451        C455   1.352       .  A
N451        H482   1.039       .  S
N452        C459   1.351       .  A
N452        C460   1.350       .  A
C453        C461   1.387       .  A
C453        C469   1.414       .  A
C454        C470   1.413       .  A
C454        C462   1.387       .  A
C455        C463   1.386       .  A
C455        C472   1.412       .  A
C456        C471   1.412       .  A
C456        C464   1.388       .  A
C457        C469   1.412       .  A
C457        C465   1.387       .  A
C458        C472   1.411       .  A
C458        C466   1.385       .  A
C459        C467   1.386       .  A
C459        C470   1.411       .  A
C460        C468   1.386       .  A
C460        C471   1.411       .  A
C461        C462   1.377       .  A
C461        H473   1.082       .  S
C462        H474   1.082       .  S
C463        C464   1.376       .  A
C463        H475   1.082       .  S
C464        H476   1.082       .  S
C465        C466   1.371       .  A
C465        H477   1.082       .  S
C466        H478   1.082       .  S
C467        C468   1.373       .  A
C467        H479   1.082       .  S
C468        H480   1.082       .  S
C469        C730   1.486       .  S
C470        C686   1.483       .  S
C471        C653   1.478       .  S
C472        C708   1.483       .  S
C483       C1379   1.480       .  S
C483        C484   1.415   1_545  A
C483        C488   1.407       .  A
C484        C939   1.486       .  S
C484        C485   1.404       .  A
C485        C486   1.403       .  A
C485        H490   1.085       .  S
C486        C697   1.481       .  S
C486        C487   1.414   1_565  A
C487        C752   1.485       .  S
C487        C488   1.404       .  A
C488        H489   1.084       .  S
N491        C496   1.353       .  A
N491        C495   1.353       .  A
N491        H523   1.038       .  S
N492        C499   1.351   1_565  A
N492        C500   1.352       .  A
N493        C498   1.352       .  A
N493        C497   1.354       .  A
N493        H524   1.038       .  S
N494        C501   1.351   1_565  A
N494        C502   1.350       .  A
C495        C503   1.387       .  A
C495        C511   1.415       .  A
C496        C512   1.414       .  A
C496        C504   1.386       .  A
C497        C505   1.387       .  A
C497        C514   1.416       .  A
C498        C513   1.413       .  A
C498        C506   1.387       .  A
C499        C511   1.413       .  A
C499        C507   1.386   1_545  A
C500        C514   1.414       .  A
C500        C508   1.386       .  A
C501        C509   1.386   1_545  A
C501        C512   1.411       .  A
C502        C510   1.387       .  A
C502        C513   1.411       .  A
C503        C504   1.374       .  A
C503        H515   1.082       .  S
C504        H516   1.082       .  S
C505        C506   1.375       .  A
C505        H517   1.082       .  S
C506        H518   1.082       .  S
C507        C508   1.371       .  A
C507        H519   1.082   1_565  S
C508        H520   1.082       .  S
C509        C510   1.371       .  A
C509        H521   1.082   1_565  S
C510        H522   1.082       .  S
C511        C631   1.485       .  S
C512        C609   1.484       .  S
C513        C565   1.479       .  S
C514        C587   1.488       .  S
C525        C873   1.480       .  S
C525        C526   1.416   1_565  A
C525        C530   1.405       .  A
C526       C1566   1.487       .  S
C526        C527   1.409       .  A
C527        C528   1.404       .  A
C527        H532   1.084       .  S
C528        C763   1.485       .  S
C528        C529   1.414   1_545  A
C529        C719   1.482       .  S
C529        C530   1.399       .  A
C530        H531   1.085       .  S
C533        C906   1.474       .  S
C533        C534   1.417       .  A
C533        C538   1.407       .  A
C534       C1456   1.493       .  S
C534        C535   1.405       .  A
C535        C536   1.403       .  A
C535        H540   1.084       .  S
C536        C620   1.477       .  S
C536        C537   1.414       .  A
C537        C796   1.488       .  S
C537        C538   1.399       .  A
C538        H539   1.085       .  S
C541        C829   1.486       .  S
C541        C542   1.415       .  A
C541        C546   1.407       .  A
C542       C1522   1.481       .  S
C542        C543   1.403       .  A
C543        C544   1.402       .  A
C543        H548   1.085       .  S
C544        C642   1.485       .  S
C544        C545   1.415       .  A
C545        C807   1.484       .  S
C545        C546   1.405       .  A
C546        H547   1.084       .  S
C549       C1423   1.481       .  S
C549        C550   1.414   1_655  A
C549        C554   1.401       .  A
C550        C917   1.478       .  S
C550        C551   1.405       .  A
C551        C552   1.401       .  A
C551        H556   1.085       .  S
C552        C576   1.482       .  S
C552        C553   1.414   1_455  A
C553        C664   1.478       .  S
C553        C554   1.399       .  A
C554        H555   1.085       .  S
C557        C851   1.489       .  S
C557        C558   1.420   1_455  A
C557        C562   1.408       .  A
C558       C1577   1.486       .  S
C558        C559   1.408       .  A
C559        C560   1.402       .  A
C559        H564   1.085       .  S
C560        C675   1.480       .  S
C560        C561   1.411   1_655  A
C561        C598   1.483       .  S
C561        C562   1.401       .  A
C562        H563   1.084       .  S
C565        C566   1.402       .  A
C565        C570   1.403       .  A
C566        C567   1.396       .  A
C566        H579   1.083       .  S
C567        C568   1.401       .  A
C567        H580   1.084       .  S
C568        C569   1.401       .  A
C568        C571   1.437       .  S
C569        C570   1.398       .  A
C569        H581   1.083       .  S
C570        H582   1.083       .  S
C571        C572   1.204       .  T
C572        C573   1.437       .  S
C573        C574   1.401       .  A
C573        C578   1.399       .  A
C574        C575   1.400       .  A
C574        H583   1.083       .  S
C575        C576   1.405       .  A
C575        H584   1.083       .  S
C576        C577   1.405       .  A
C577        C578   1.395       .  A
C577        H585   1.083       .  S
C578        H586   1.084       .  S
C587        C588   1.405       .  A
C587        C592   1.405       .  A
C588        C589   1.398       .  A
C588        H601   1.083       .  S
C589        C590   1.400       .  A
C589        H602   1.083       .  S
C590        C591   1.401       .  A
C590        C593   1.440       .  S
C591        C592   1.399       .  A
C591        H603   1.083       .  S
C592        H604   1.083       .  S
C593        C594   1.206       .  T
C594        C595   1.440       .  S
C595        C596   1.401       .  A
C595        C600   1.400       .  A
C596        C597   1.399       .  A
C596        H605   1.084       .  S
C597        C598   1.406       .  A
C597        H606   1.083       .  S
C598        C599   1.403       .  A
C599        C600   1.398       .  A
C599        H607   1.083       .  S
C600        H608   1.083       .  S
C609        C610   1.404       .  A
C609        C614   1.404       .  A
C610        C611   1.398       .  A
C610        H623   1.083       .  S
C611        C612   1.400       .  A
C611        H624   1.084       .  S
C612        C613   1.400       .  A
C612        C615   1.435       .  S
C613        C614   1.397       .  A
C613        H625   1.084       .  S
C614        H626   1.083       .  S
C615        C616   1.203       .  T
C616        C617   1.434       .  S
C617        C618   1.399       .  A
C617        C622   1.400       .  A
C618        C619   1.395       .  A
C618        H627   1.083       .  S
C619        C620   1.403       .  A
C619        H628   1.083       .  S
C620        C621   1.405       .  A
C621        C622   1.396       .  A
C621        H629   1.083       .  S
C622        H630   1.083       .  S
C631        C632   1.403       .  A
C631        C636   1.405       .  A
C632        C633   1.397       .  A
C632        H645   1.083       .  S
C633        C634   1.400       .  A
C633        H646   1.083       .  S
C634        C635   1.401       .  A
C634        C637   1.439       .  S
C635        C636   1.399       .  A
C635        H647   1.083       .  S
C636        H648   1.083       .  S
C637        C638   1.206       .  T
C638        C639   1.440       .  S
C639        C640   1.400       .  A
C639        C644   1.401       .  A
C640        C641   1.398       .  A
C640        H649   1.083       .  S
C641        C642   1.405       .  A
C641        H650   1.083       .  S
C642        C643   1.406       .  A
C643        C644   1.399       .  A
C643        H651   1.083       .  S
C644        H652   1.083       .  S
C653        C654   1.402       .  A
C653        C658   1.403       .  A
C654        C655   1.396       .  A
C654        H667   1.083       .  S
C655        C656   1.400       .  A
C655        H668   1.084       .  S
C656        C657   1.400       .  A
C656        C659   1.435       .  S
C657        C658   1.398       .  A
C657        H669   1.083       .  S
C658        H670   1.083       .  S
C659        C660   1.203       .  T
C660        C661   1.435       .  S
C661        C662   1.400       .  A
C661        C666   1.400       .  A
C662        C663   1.397       .  A
C662        H671   1.083       .  S
C663        C664   1.404       .  A
C663        H672   1.083       .  S
C664        C665   1.404       .  A
C665        C666   1.396       .  A
C665        H673   1.083       .  S
C666        H674   1.083       .  S
C675        C676   1.404       .  A
C675        C680   1.404       .  A
C676        C677   1.400       .  A
C676        H689   1.083       .  S
C677        C678   1.401       .  A
C677        H690   1.083       .  S
C678        C679   1.400       .  A
C678        C681   1.440       .  S
C679        C680   1.397       .  A
C679        H691   1.084       .  S
C680        H692   1.083       .  S
C681        C682   1.206       .  T
C682        C683   1.440       .  S
C683        C684   1.400       .  A
C683        C688   1.401       .  A
C684        C685   1.398       .  A
C684        H693   1.083       .  S
C685        C686   1.403       .  A
C685        H694   1.083       .  S
C686        C687   1.404       .  A
C687        C688   1.399       .  A
C687        H695   1.083       .  S
C688        H696   1.083       .  S
C697        C698   1.404       .  A
C697        C702   1.405       .  A
C698        C699   1.397       .  A
C698        H711   1.083       .  S
C699        C700   1.400       .  A
C699        H712   1.083       .  S
C700        C701   1.401       .  A
C700        C703   1.439       .  S
C701        C702   1.398       .  A
C701        H713   1.083       .  S
C702        H714   1.083       .  S
C703        C704   1.206       .  T
C704        C705   1.439       .  S
C705        C706   1.401       .  A
C705        C710   1.400       .  A
C706        C707   1.400       .  A
C706        H715   1.083       .  S
C707        C708   1.404       .  A
C707        H716   1.083       .  S
C708        C709   1.403       .  A
C709        C710   1.397       .  A
C709        H717   1.083       .  S
C710        H718   1.083       .  S
C719        C720   1.405       .  A
C719        C724   1.404       .  A
C720        C721   1.400       .  A
C720        H733   1.083       .  S
C721        C722   1.402       .  A
C721        H734   1.083       .  S
C722        C723   1.400       .  A
C722        C725   1.441       .  S
C723        C724   1.398       .  A
C723        H735   1.083       .  S
C724        H736   1.083       .  S
C725        C726   1.207       .  T
C726        C727   1.441       .  S
C727        C728   1.402       .  A
C727        C732   1.400       .  A
C728        C729   1.400       .  A
C728        H737   1.083       .  S
C729        C730   1.404       .  A
C729        H738   1.083       .  S
C730        C731   1.405       .  A
C731        C732   1.397       .  A
C731        H739   1.083       .  S
C732        H740   1.083       .  S
C741        C742   1.406       .  A
C741        C746   1.406       .  A
C742        C743   1.401       .  A
C742        H755   1.083       .  S
C743        C744   1.402       .  A
C743        H756   1.083       .  S
C744        C745   1.401       .  A
C744        C747   1.445       .  S
C745        C746   1.400       .  A
C745        H757   1.083       .  S
C746        H758   1.083       .  S
C747        C748   1.209       .  T
C748        C749   1.445       .  S
C749        C750   1.402       .  A
C749        C754   1.402       .  A
C750        C751   1.401       .  A
C750        H759   1.083       .  S
C751        C752   1.405       .  A
C751        H760   1.083       .  S
C752        C753   1.404       .  A
C753        C754   1.401       .  A
C753        H761   1.083       .  S
C754        H762   1.083       .  S
C763        C764   1.405       .  A
C763        C768   1.405       .  A
C764        C765   1.397       .  A
C764        H777   1.083       .  S
C765        C766   1.400       .  A
C765        H778   1.083       .  S
C766        C767   1.401       .  A
C766        C769   1.441       .  S
C767        C768   1.400       .  A
C767        H779   1.083       .  S
C768        H780   1.083       .  S
C769        C770   1.207       .  T
C770        C771   1.441       .  S
C771        C772   1.402       .  A
C771        C776   1.400       .  A
C772        C773   1.401       .  A
C772        H781   1.083       .  S
C773        C774   1.405       .  A
C773        H782   1.083       .  S
C774        C775   1.404       .  A
C775        C776   1.397       .  A
C775        H783   1.083       .  S
C776        H784   1.084       .  S
C785        C786   1.407       .  A
C785        C790   1.404       .  A
C786        C787   1.403       .  A
C786        H799   1.083       .  S
C787        C788   1.403       .  A
C787        H800   1.083       .  S
C788        C789   1.400       .  A
C788        C791   1.446       .  S
C789        C790   1.399       .  A
C789        H801   1.083       .  S
C790        H802   1.083       .  S
C791        C792   1.210       .  T
C792        C793   1.446       .  S
C793        C794   1.403       .  A
C793        C798   1.401       .  A
C794        C795   1.402       .  A
C794        H803   1.083       .  S
C795        C796   1.405       .  A
C795        H804   1.083       .  S
C796        C797   1.406       .  A
C797        C798   1.400       .  A
C797        H805   1.083       .  S
C798        H806   1.083       .  S
C807        C808   1.406       .  A
C807        C812   1.404       .  A
C808        C809   1.399       .  A
C808        H821   1.083       .  S
C809        C810   1.401       .  A
C809        H822   1.083       .  S
C810        C811   1.401       .  A
C810        C813   1.441       .  S
C811        C812   1.399       .  A
C811        H823   1.083       .  S
C812        H824   1.083       .  S
C813        C814   1.207       .  T
C814        C815   1.442       .  S
C815        C816   1.402       .  A
C815        C820   1.401       .  A
C816        C817   1.401       .  A
C816        H825   1.083       .  S
C817        C818   1.404       .  A
C817        H826   1.083       .  S
C818        C819   1.403       .  A
C819        C820   1.398       .  A
C819        H827   1.083       .  S
C820        H828   1.083       .  S
C829        C830   1.406       .  A
C829        C834   1.405       .  A
C830        C831   1.402       .  A
C830        H843   1.083       .  S
C831        C832   1.402       .  A
C831        H844   1.083       .  S
C832        C833   1.401       .  A
C832        C835   1.445       .  S
C833        C834   1.399       .  A
C833        H845   1.084       .  S
C834        H846   1.083       .  S
C835        C836   1.209       .  T
C836        C837   1.444       .  S
C837        C838   1.399       .  A
C837        C842   1.402       .  A
C838        C839   1.398       .  A
C838        H847   1.084       .  S
C839        C840   1.410       .  A
C839        H848   1.083       .  S
C840        C841   1.407       .  A
C841        C842   1.402       .  A
C841        H849   1.083       .  S
C842        H850   1.083       .  S
C851        C852   1.407       .  A
C851        C856   1.407       .  A
C852        C853   1.397       .  A
C852        H865   1.083       .  S
C853        C854   1.399       .  A
C853        H866   1.084       .  S
C854        C855   1.402       .  A
C854        C857   1.443       .  S
C855        C856   1.402       .  A
C855        H867   1.083       .  S
C856        H868   1.082       .  S
C857        C858   1.208       .  T
C858        C859   1.444       .  S
C859        C860   1.399       .  A
C859        C864   1.401       .  A
C860        C861   1.398       .  A
C860        H869   1.084       .  S
C861        C862   1.409       .  A
C861        H870   1.083       .  S
C862        C863   1.409       .  A
C863        C864   1.402       .  A
C863        H871   1.083       .  S
C864        H872   1.083       .  S
C873        C874   1.405       .  A
C873        C878   1.405       .  A
C874        C875   1.396       .  A
C874        H887   1.083       .  S
C875        C876   1.398       .  A
C875        H888   1.084       .  S
C876        C877   1.402       .  A
C876        C879   1.439       .  S
C877        C878   1.401       .  A
C877        H889   1.083       .  S
C878        H890   1.083       .  S
C879        C880   1.206       .  T
C880        C881   1.439       .  S
C881        C882   1.404       .  A
C881        C886   1.393       .  A
C882        C883   1.406       .  A
C882        H891   1.083       .  S
C883        C884   1.407       .  A
C883        H892   1.083       .  S
C884        C885   1.411       .  A
C885        C886   1.390       .  A
C885        H893   1.083       .  S
C886        H894   1.084       .  S
C895        C896   1.407       .  A
C895        C900   1.410       .  A
C896        C897   1.398       .  A
C896        H909   1.083       .  S
C897        C898   1.399       .  A
C897        H910   1.083       .  S
C898        C899   1.398       .  A
C898        C901   1.437       .  S
C899        C900   1.397       .  A
C899        H911   1.084       .  S
C900        H912   1.083       .  S
C901        C902   1.204       .  T
C902        C903   1.436       .  S
C903        C904   1.401       .  A
C903        C908   1.399       .  A
C904        C905   1.398       .  A
C904        H913   1.083       .  S
C905        C906   1.403       .  A
C905        H914   1.083       .  S
C906        C907   1.404       .  A
C907        C908   1.395       .  A
C907        H915   1.083       .  S
C908        H916   1.084       .  S
C917        C918   1.406       .  A
C917        C922   1.403       .  A
C918        C919   1.399       .  A
C918        H931   1.083       .  S
C919        C920   1.400       .  A
C919        H932   1.083       .  S
C920        C921   1.399       .  A
C920        C923   1.436       .  S
C921        C922   1.395       .  A
C921        H933   1.084       .  S
C922        H934   1.083       .  S
C923        C924   1.204       .  T
C924        C925   1.436       .  S
C925        C926   1.397       .  A
C925        C930   1.399       .  A
C926        C927   1.394       .  A
C926        H935   1.084       .  S
C927        C928   1.408       .  A
C927        H936   1.083       .  S
C928        C929   1.408       .  A
C929        C930   1.399       .  A
C929        H937   1.083       .  S
C930        H938   1.083       .  S
C939        C940   1.406       .  A
C939        C944   1.404       .  A
C940        C941   1.403       .  A
C940        H953   1.083       .  S
C941        C942   1.403       .  A
C941        H954   1.083       .  S
C942        C943   1.400       .  A
C942        C945   1.445       .  S
C943        C944   1.397       .  A
C943        H955   1.084       .  S
C944        H956   1.083       .  S
C945        C946   1.209       .  T
C946        C947   1.445       .  S
C947        C948   1.398       .  A
C947        C952   1.402       .  A
C948        C949   1.397       .  A
C948        H957   1.084       .  S
C949        C950   1.410       .  A
C949        H958   1.083       .  S
C950        C951   1.408       .  A
C951        C952   1.404       .  A
C951        H959   1.083       .  S
C952        H960   1.083       .  S
C961        C962   1.404       .  A
C961        C966   1.406       .  A
C962        C963   1.395       .  A
C962        H975   1.083       .  S
C963        C964   1.399       .  A
C963        H976   1.084       .  S
C964        C965   1.402       .  A
C964        C967   1.439       .  S
C965        C966   1.401       .  A
C965        H977   1.083       .  S
C966        H978   1.083       .  S
C967        C968   1.206       .  T
C968        C969   1.440       .  S
C969        C970   1.399       .  A
C969        C974   1.400       .  A
C970        C971   1.399       .  A
C970        H979   1.083       .  S
C971        C972   1.409       .  A
C971        H980   1.083       .  S
C972        C973   1.408       .  A
C973        C974   1.398       .  A
C973        H981   1.083       .  S
C974        H982   1.084       .  S
C983        C984   1.406       .  A
C983        C988   1.405       .  A
C984        C985   1.396       .  A
C984        H997   1.083       .  S
C985        C986   1.399       .  A
C985        H998   1.084       .  S
C986        C987   1.402       .  A
C986        C989   1.441       .  S
C987        C988   1.401       .  A
C987        H999   1.083       .  S
C988       H1000   1.083       .  S
C989        C990   1.207       .  T
C990        C991   1.441       .  S
C991        C992   1.397       .  A
C991        C996   1.402       .  A
C992        C993   1.396       .  A
C992       H1001   1.084       .  S
C993        C994   1.410       .  A
C993       H1002   1.083       .  S
C994        C995   1.407       .  A
C995        C996   1.402       .  A
C995       H1003   1.083       .  S
C996       H1004   1.083       .  S
C1005      C1006   1.409       .  A
C1005      C1010   1.407       .  A
C1006      C1007   1.395       .  A
C1006      H1019   1.083       .  S
C1007      C1008   1.397       .  A
C1007      H1020   1.084       .  S
C1008      C1009   1.401       .  A
C1008      C1011   1.437       .  S
C1009      C1010   1.400       .  A
C1009      H1021   1.083       .  S
C1010      H1022   1.083       .  S
C1011      C1012   1.205       .  T
C1012      C1013   1.438       .  S
C1013      C1014   1.398       .  A
C1013      C1018   1.402       .  A
C1014      C1015   1.396       .  A
C1014      H1023   1.083       .  S
C1015      C1016   1.405       .  A
C1015      H1024   1.083       .  S
C1016      C1017   1.404       .  A
C1017      C1018   1.400       .  A
C1017      H1025   1.083       .  S
C1018      H1026   1.083       .  S
C1027      C1028   1.409       .  A
C1027      C1032   1.410       .  A
C1028      C1029   1.405       .  A
C1028      H1041   1.083       .  S
C1029      C1030   1.403       .  A
C1029      H1042   1.083       .  S
C1030      C1031   1.397       .  A
C1030      C1033   1.445       .  S
C1031      C1032   1.396       .  A
C1031      H1043   1.084       .  S
C1032      H1044   1.083       .  S
C1033      C1034   1.209       .  T
C1034      C1035   1.445       .  S
C1035      C1036   1.402       .  A
C1035      C1040   1.401       .  A
C1036      C1037   1.400       .  A
C1036      H1045   1.083       .  S
C1037      C1038   1.405       .  A
C1037      H1046   1.083       .  S
C1038      C1039   1.405       .  A
C1039      C1040   1.400       .  A
C1039      H1047   1.083       .  S
C1040      H1048   1.083       .  S
C1049      C1050   1.405       .  A
C1049      C1054   1.404       .  A
C1050      C1051   1.399       .  A
C1050      H1063   1.083       .  S
C1051      C1052   1.400       .  A
C1051      H1064   1.083       .  S
C1052      C1053   1.401       .  A
C1052      C1055   1.439       .  S
C1053      C1054   1.397       .  A
C1053      H1065   1.084       .  S
C1054      H1066   1.083       .  S
C1055      C1056   1.206       .  T
C1056      C1057   1.440       .  S
C1057      C1058   1.396       .  A
C1057      C1062   1.402       .  A
C1058      C1059   1.394       .  A
C1058      H1067   1.084       .  S
C1059      C1060   1.409       .  A
C1059      H1068   1.083       .  S
C1060      C1061   1.409       .  A
C1061      C1062   1.404       .  A
C1061      H1069   1.083       .  S
C1062      H1070   1.083       .  S
C1071      C1072   1.409       .  A
C1071      C1076   1.410       .  A
C1072      C1073   1.397       .  A
C1072      H1085   1.083       .  S
C1073      C1074   1.398       .  A
C1073      H1086   1.084       .  S
C1074      C1075   1.402       .  A
C1074      C1077   1.445       .  S
C1075      C1076   1.404       .  A
C1075      H1087   1.083       .  S
C1076      H1088   1.083       .  S
C1077      C1078   1.209       .  T
C1078      C1079   1.445       .  S
C1079      C1080   1.399       .  A
C1079      C1084   1.403       .  A
C1080      C1081   1.398       .  A
C1080      H1089   1.084       .  S
C1081      C1082   1.407       .  A
C1081      H1090   1.083       .  S
C1082      C1083   1.406       .  A
C1083      C1084   1.402       .  A
C1083      H1091   1.083       .  S
C1084      H1092   1.083       .  S
C1093      C1094   1.405       .  A
C1093      C1098   1.406       .  A
C1094      C1095   1.399       .  A
C1094      H1107   1.083       .  S
C1095      C1096   1.401       .  A
C1095      H1108   1.083       .  S
C1096      C1097   1.401       .  A
C1096      C1099   1.442       .  S
C1097      C1098   1.400       .  A
C1097      H1109   1.083       .  S
C1098      H1110   1.083       .  S
C1099      C1100   1.207       .  T
C1100      C1101   1.442       .  S
C1101      C1102   1.401       .  A
C1101      C1106   1.401       .  A
C1102      C1103   1.399       .  A
C1102      H1111   1.083       .  S
C1103      C1104   1.405       .  A
C1103      H1112   1.083       .  S
C1104      C1105   1.404       .  A
C1105      C1106   1.399       .  A
C1105      H1113   1.083       .  S
C1106      H1114   1.083       .  S
C1115      C1116   1.403       .  A
C1115      C1120   1.403       .  A
C1116      C1117   1.397       .  A
C1116      H1129   1.083       .  S
C1117      C1118   1.400       .  A
C1117      H1130   1.083       .  S
C1118      C1119   1.399       .  A
C1118      C1121   1.434       .  S
C1119      C1120   1.395       .  A
C1119      H1131   1.084       .  S
C1120      H1132   1.083       .  S
C1121      C1122   1.202       .  T
C1122      C1123   1.434       .  S
C1123      C1124   1.399       .  A
C1123      C1128   1.400       .  A
C1124      C1125   1.395       .  A
C1124      H1133   1.083       .  S
C1125      C1126   1.402       .  A
C1125      H1134   1.083       .  S
C1126      C1127   1.404       .  A
C1127      C1128   1.396       .  A
C1127      H1135   1.083       .  S
C1128      H1136   1.083       .  S
C1137      C1138   1.405       .  A
C1137      C1142   1.407       .  A
C1138      C1139   1.395       .  A
C1138      H1151   1.083       .  S
C1139      C1140   1.398       .  A
C1139      H1152   1.084       .  S
C1140      C1141   1.400       .  A
C1140      C1143   1.435       .  S
C1141      C1142   1.398       .  A
C1141      H1153   1.084       .  S
C1142      H1154   1.083       .  S
C1143      C1144   1.203       .  T
C1144      C1145   1.434       .  S
C1145      C1146   1.399       .  A
C1145      C1150   1.400       .  A
C1146      C1147   1.396       .  A
C1146      H1155   1.083       .  S
C1147      C1148   1.403       .  A
C1147      H1156   1.083       .  S
C1148      C1149   1.405       .  A
C1149      C1150   1.397       .  A
C1149      H1157   1.083       .  S
C1150      H1158   1.084       .  S
C1159      C1160   1.405       .  A
C1159      C1164   1.406       .  A
C1160      C1161   1.400       .  A
C1160      H1173   1.083       .  S
C1161      C1162   1.401       .  A
C1161      H1174   1.083       .  S
C1162      C1163   1.398       .  A
C1162      C1165   1.438       .  S
C1163      C1164   1.395       .  A
C1163      H1175   1.084       .  S
C1164      H1176   1.083       .  S
C1165      C1166   1.205       .  T
C1166      C1167   1.437       .  S
C1167      C1168   1.400       .  A
C1167      C1172   1.401       .  A
C1168      C1169   1.396       .  A
C1168      H1177   1.083       .  S
C1169      C1170   1.403       .  A
C1169      H1178   1.083       .  S
C1170      C1171   1.404       .  A
C1171      C1172   1.398       .  A
C1171      H1179   1.083       .  S
C1172      H1180   1.083       .  S
C1181      C1182   1.403       .  A
C1181      C1186   1.403       .  A
C1182      C1183   1.399       .  A
C1182      H1195   1.083       .  S
C1183      C1184   1.401       .  A
C1183      H1196   1.083       .  S
C1184      C1185   1.400       .  A
C1184      C1187   1.439       .  S
C1185      C1186   1.397       .  A
C1185      H1197   1.083       .  S
C1186      H1198   1.083       .  S
C1187      C1188   1.206       .  T
C1188      C1189   1.439       .  S
C1189      C1190   1.401       .  A
C1189      C1194   1.399       .  A
C1190      C1191   1.399       .  A
C1190      H1199   1.083       .  S
C1191      C1192   1.406       .  A
C1191      H1200   1.083       .  S
C1192      C1193   1.405       .  A
C1193      C1194   1.397       .  A
C1193      H1201   1.083       .  S
C1194      H1202   1.083       .  S
C1203      C1204   1.404       .  A
C1203      C1208   1.406       .  A
C1204      C1205   1.400       .  A
C1204      H1217   1.083       .  S
C1205      C1206   1.402       .  A
C1205      H1218   1.083       .  S
C1206      C1207   1.399       .  A
C1206      C1209   1.441       .  S
C1207      C1208   1.397       .  A
C1207      H1219   1.083       .  S
C1208      H1220   1.083       .  S
C1209      C1210   1.207       .  T
C1210      C1211   1.441       .  S
C1211      C1212   1.401       .  A
C1211      C1216   1.401       .  A
C1212      C1213   1.399       .  A
C1212      H1221   1.083       .  S
C1213      C1214   1.405       .  A
C1213      H1222   1.083       .  S
C1214      C1215   1.404       .  A
C1215      C1216   1.399       .  A
C1215      H1223   1.083       .  S
C1216      H1224   1.083       .  S
C1225      C1226   1.405       .  A
C1225      C1230   1.403       .  A
C1226      C1227   1.399       .  A
C1226      H1239   1.083       .  S
C1227      C1228   1.401       .  A
C1227      H1240   1.083       .  S
C1228      C1229   1.400       .  A
C1228      C1231   1.438       .  S
C1229      C1230   1.397       .  A
C1229      H1241   1.084       .  S
C1230      H1242   1.083       .  S
C1231      C1232   1.205       .  T
C1232      C1233   1.438       .  S
C1233      C1234   1.400       .  A
C1233      C1238   1.400       .  A
C1234      C1235   1.396       .  A
C1234      H1243   1.084       .  S
C1235      C1236   1.404       .  A
C1235      H1244   1.083       .  S
C1236      C1237   1.405       .  A
C1237      C1238   1.398       .  A
C1237      H1245   1.083       .  S
C1238      H1246   1.083       .  S
C1247      C1248   1.406       .  A
C1247      C1252   1.404       .  A
C1248      C1249   1.398       .  A
C1248      H1261   1.083       .  S
C1249      C1250   1.400       .  A
C1249      H1262   1.084       .  S
C1250      C1251   1.400       .  A
C1250      C1253   1.438       .  S
C1251      C1252   1.397       .  A
C1251      H1263   1.083       .  S
C1252      H1264   1.083       .  S
C1253      C1254   1.205       .  T
C1254      C1255   1.437       .  S
C1255      C1256   1.401       .  A
C1255      C1260   1.399       .  A
C1256      C1257   1.399       .  A
C1256      H1265   1.083       .  S
C1257      C1258   1.404       .  A
C1257      H1266   1.083       .  S
C1258      C1259   1.404       .  A
C1259      C1260   1.395       .  A
C1259      H1267   1.083       .  S
C1260      H1268   1.083       .  S
C1269      C1270   1.403       .  A
C1269      C1274   1.404       .  A
C1270      C1271   1.397       .  A
C1270      H1283   1.083       .  S
C1271      C1272   1.401       .  A
C1271      H1284   1.084       .  S
C1272      C1273   1.401       .  A
C1272      C1275   1.438       .  S
C1273      C1274   1.399       .  A
C1273      H1285   1.083       .  S
C1274      H1286   1.083       .  S
C1275      C1276   1.205       .  T
C1276      C1277   1.438       .  S
C1277      C1278   1.400       .  A
C1277      C1282   1.400       .  A
C1278      C1279   1.399       .  A
C1278      H1287   1.083       .  S
C1279      C1280   1.404       .  A
C1279      H1288   1.083       .  S
C1280      C1281   1.405       .  A
C1281      C1282   1.396       .  A
C1281      H1289   1.083       .  S
C1282      H1290   1.084       .  S
C1291      C1292   1.404       .  A
C1291      C1296   1.406       .  A
C1292      C1293   1.402       .  A
C1292      H1305   1.083       .  S
C1293      C1294   1.402       .  A
C1293      H1306   1.083       .  S
C1294      C1295   1.400       .  A
C1294      C1297   1.443       .  S
C1295      C1296   1.397       .  A
C1295      H1307   1.083       .  S
C1296      H1308   1.083       .  S
C1297      C1298   1.208       .  T
C1298      C1299   1.443       .  S
C1299      C1300   1.402       .  A
C1299      C1304   1.400       .  A
C1300      C1301   1.400       .  A
C1300      H1309   1.083       .  S
C1301      C1302   1.405       .  A
C1301      H1310   1.083       .  S
C1302      C1303   1.405       .  A
C1303      C1304   1.399       .  A
C1303      H1311   1.083       .  S
C1304      H1312   1.083       .  S
C1313      C1314   1.404       .  A
C1313      C1318   1.405       .  A
C1314      C1315   1.398       .  A
C1314      H1327   1.083       .  S
C1315      C1316   1.401       .  A
C1315      H1328   1.083       .  S
C1316      C1317   1.402       .  A
C1316      C1319   1.442       .  S
C1317      C1318   1.400       .  A
C1317      H1329   1.083       .  S
C1318      H1330   1.083       .  S
C1319      C1320   1.207       .  T
C1320      C1321   1.442       .  S
C1321      C1322   1.400       .  A
C1321      C1326   1.402       .  A
C1322      C1323   1.399       .  A
C1322      H1331   1.083       .  S
C1323      C1324   1.405       .  A
C1323      H1332   1.083       .  S
C1324      C1325   1.404       .  A
C1325      C1326   1.400       .  A
C1325      H1333   1.083       .  S
C1326      H1334   1.083       .  S
C1335      C1336   1.403       .  A
C1335      C1340   1.403       .  A
C1336      C1337   1.398       .  A
C1336      H1349   1.083       .  S
C1337      C1338   1.401       .  A
C1337      H1350   1.084       .  S
C1338      C1339   1.399       .  A
C1338      C1341   1.434       .  S
C1339      C1340   1.396       .  A
C1339      H1351   1.083       .  S
C1340      H1352   1.083       .  S
C1341      C1342   1.203       .  T
C1342      C1343   1.434       .  S
C1343      C1344   1.401       .  A
C1343      C1348   1.398       .  A
C1344      C1345   1.398       .  A
C1344      H1353   1.083       .  S
C1345      C1346   1.404       .  A
C1345      H1354   1.083       .  S
C1346      C1347   1.404       .  A
C1347      C1348   1.393       .  A
C1347      H1355   1.083       .  S
C1348      H1356   1.084       .  S
C1357      C1358   1.409       .  A
C1357      C1362   1.408       .  A
C1358      C1359   1.397       .  A
C1358      H1371   1.083       .  S
C1359      C1360   1.398       .  A
C1359      H1372   1.084       .  S
C1360      C1361   1.401       .  A
C1360      C1363   1.442       .  S
C1361      C1362   1.401       .  A
C1361      H1373   1.083       .  S
C1362      H1374   1.083       .  S
C1363      C1364   1.207       .  T
C1364      C1365   1.442       .  S
C1365      C1366   1.400       .  A
C1365      C1370   1.402       .  A
C1366      C1367   1.398       .  A
C1366      H1375   1.084       .  S
C1367      C1368   1.405       .  A
C1367      H1376   1.083       .  S
C1368      C1369   1.406       .  A
C1369      C1370   1.401       .  A
C1369      H1377   1.083       .  S
C1370      H1378   1.083       .  S
C1379      C1380   1.404       .  A
C1379      C1384   1.405       .  A
C1380      C1381   1.398       .  A
C1380      H1393   1.083       .  S
C1381      C1382   1.401       .  A
C1381      H1394   1.084       .  S
C1382      C1383   1.401       .  A
C1382      C1385   1.441       .  S
C1383      C1384   1.400       .  A
C1383      H1395   1.083       .  S
C1384      H1396   1.083       .  S
C1385      C1386   1.207       .  T
C1386      C1387   1.442       .  S
C1387      C1388   1.401       .  A
C1387      C1392   1.397       .  A
C1388      C1389   1.403       .  A
C1388      H1397   1.083       .  S
C1389      C1390   1.408       .  A
C1389      H1398   1.083       .  S
C1390      C1391   1.411       .  A
C1391      C1392   1.396       .  A
C1391      H1399   1.083       .  S
C1392      H1400   1.084       .  S
C1401      C1402   1.406       .  A
C1401      C1406   1.408       .  A
C1402      C1403   1.393       .  A
C1402      H1415   1.083       .  S
C1403      C1404   1.397       .  A
C1403      H1416   1.084       .  S
C1404      C1405   1.400       .  A
C1404      C1407   1.435       .  S
C1405      C1406   1.400       .  A
C1405      H1417   1.083       .  S
C1406      H1418   1.083       .  S
C1407      C1408   1.203       .  T
C1408      C1409   1.435       .  S
C1409      C1410   1.399       .  A
C1409      C1414   1.399       .  A
C1410      C1411   1.398       .  A
C1410      H1419   1.083       .  S
C1411      C1412   1.406       .  A
C1411      H1420   1.083       .  S
C1412      C1413   1.404       .  A
C1413      C1414   1.395       .  A
C1413      H1421   1.083       .  S
C1414      H1422   1.084       .  S
C1423      C1424   1.404       .  A
C1423      C1428   1.406       .  A
C1424      C1425   1.396       .  A
C1424      H1437   1.083       .  S
C1425      C1426   1.400       .  A
C1425      H1438   1.084       .  S
C1426      C1427   1.401       .  A
C1426      C1429   1.439       .  S
C1427      C1428   1.400       .  A
C1427      H1439   1.083       .  S
C1428      H1440   1.083       .  S
C1429      C1430   1.206       .  T
C1430      C1431   1.439       .  S
C1431      C1432   1.401       .  A
C1431      C1436   1.397       .  A
C1432      C1433   1.402       .  A
C1432      H1441   1.083       .  S
C1433      C1434   1.408       .  A
C1433      H1442   1.083       .  S
C1434      C1435   1.408       .  A
C1435      C1436   1.393       .  A
C1435      H1443   1.083       .  S
C1436      H1444   1.084       .  S
C1445      C1446   1.410       .  A
C1445      C1450   1.408       .  A
C1446      C1447   1.398       .  A
C1446      H1459   1.083       .  S
C1447      C1448   1.398       .  A
C1447      H1460   1.084       .  S
C1448      C1449   1.402       .  A
C1448      C1451   1.445       .  S
C1449      C1450   1.402       .  A
C1449      H1461   1.083       .  S
C1450      H1462   1.083       .  S
C1451      C1452   1.209       .  T
C1452      C1453   1.445       .  S
C1453      C1454   1.403       .  A
C1453      C1458   1.399       .  A
C1454      C1455   1.404       .  A
C1454      H1463   1.083       .  S
C1455      C1456   1.409       .  A
C1455      H1464   1.082       .  S
C1456      C1457   1.407       .  A
C1457      C1458   1.397       .  A
C1457      H1465   1.083       .  S
C1458      H1466   1.084       .  S
C1467      C1468   1.409       .  A
C1467      C1472   1.408       .  A
C1468      C1469   1.397       .  A
C1468      H1481   1.083       .  S
C1469      C1470   1.398       .  A
C1469      H1482   1.084       .  S
C1470      C1471   1.401       .  A
C1470      C1473   1.441       .  S
C1471      C1472   1.401       .  A
C1471      H1483   1.083       .  S
C1472      H1484   1.083       .  S
C1473      C1474   1.207       .  T
C1474      C1475   1.441       .  S
C1475      C1476   1.400       .  A
C1475      C1480   1.402       .  A
C1476      C1477   1.397       .  A
C1476      H1485   1.084       .  S
C1477      C1478   1.404       .  A
C1477      H1486   1.083       .  S
C1478      C1479   1.405       .  A
C1479      C1480   1.401       .  A
C1479      H1487   1.083       .  S
C1480      H1488   1.083       .  S
C1489      C1490   1.404       .  A
C1489      C1494   1.405       .  A
C1490      C1491   1.398       .  A
C1490      H1503   1.083       .  S
C1491      C1492   1.401       .  A
C1491      H1504   1.083       .  S
C1492      C1493   1.401       .  A
C1492      C1495   1.441       .  S
C1493      C1494   1.399       .  A
C1493      H1505   1.084       .  S
C1494      H1506   1.083       .  S
C1495      C1496   1.207       .  T
C1496      C1497   1.441       .  S
C1497      C1498   1.399       .  A
C1497      C1502   1.400       .  A
C1498      C1499   1.397       .  A
C1498      H1507   1.084       .  S
C1499      C1500   1.409       .  A
C1499      H1508   1.083       .  S
C1500      C1501   1.408       .  A
C1501      C1502   1.400       .  A
C1501      H1509   1.083       .  S
C1502      H1510   1.083       .  S
C1511      C1512   1.410       .  A
C1511      C1516   1.409       .  A
C1512      C1513   1.397       .  A
C1512      H1525   1.083       .  S
C1513      C1514   1.398       .  A
C1513      H1526   1.084       .  S
C1514      C1515   1.402       .  A
C1514      C1517   1.444       .  S
C1515      C1516   1.403       .  A
C1515      H1527   1.083       .  S
C1516      H1528   1.083       .  S
C1517      C1518   1.208       .  T
C1518      C1519   1.444       .  S
C1519      C1520   1.400       .  A
C1519      C1524   1.403       .  A
C1520      C1521   1.397       .  A
C1520      H1529   1.083       .  S
C1521      C1522   1.404       .  A
C1521      H1530   1.083       .  S
C1522      C1523   1.405       .  A
C1523      C1524   1.402       .  A
C1523      H1531   1.083       .  S
C1524      H1532   1.083       .  S
C1533      C1534   1.409       .  A
C1533      C1538   1.409       .  A
C1534      C1535   1.398       .  A
C1534      H1547   1.083       .  S
C1535      C1536   1.399       .  A
C1535      H1548   1.084       .  S
C1536      C1537   1.399       .  A
C1536      C1539   1.439       .  S
C1537      C1538   1.399       .  A
C1537      H1549   1.084       .  S
C1538      H1550   1.083       .  S
C1539      C1540   1.206       .  T
C1540      C1541   1.439       .  S
C1541      C1542   1.400       .  A
C1541      C1546   1.401       .  A
C1542      C1543   1.397       .  A
C1542      H1551   1.084       .  S
C1543      C1544   1.404       .  A
C1543      H1552   1.083       .  S
C1544      C1545   1.405       .  A
C1545      C1546   1.399       .  A
C1545      H1553   1.083       .  S
C1546      H1554   1.083       .  S
C1555      C1556   1.409       .  A
C1555      C1560   1.410       .  A
C1556      C1557   1.404       .  A
C1556      H1569   1.083       .  S
C1557      C1558   1.401       .  A
C1557      H1570   1.083       .  S
C1558      C1559   1.399       .  A
C1558      C1561   1.445       .  S
C1559      C1560   1.398       .  A
C1559      H1571   1.084       .  S
C1560      H1572   1.083       .  S
C1561      C1562   1.209       .  T
C1562      C1563   1.444       .  S
C1563      C1564   1.399       .  A
C1563      C1568   1.403       .  A
C1564      C1565   1.396       .  A
C1564      H1573   1.084       .  S
C1565      C1566   1.405       .  A
C1565      H1574   1.083       .  S
C1566      C1567   1.407       .  A
C1567      C1568   1.404       .  A
C1567      H1575   1.083   1_545  S
C1568      H1576   1.083       .  S
C1577      C1578   1.405       .  A
C1577      C1582   1.407       .  A
C1578      C1579   1.396       .  A
C1578      H1591   1.083       .  S
C1579      C1580   1.399       .  A
C1579      H1592   1.084       .  S
C1580      C1581   1.403       .  A
C1580      C1583   1.444       .  S
C1581      C1582   1.404       .  A
C1581      H1593   1.083       .  S
C1582      H1594   1.083       .  S
C1583      C1584   1.208       .  T
C1584      C1585   1.444       .  S
C1585      C1586   1.401       .  A
C1585      C1590   1.398       .  A
C1586      C1587   1.403       .  A
C1586      H1595   1.083       .  S
C1587      C1588   1.410       .  A
C1587      H1596   1.083       .  S
C1588      C1589   1.408       .  A
C1589      C1590   1.396       .  A
C1589      H1597   1.083       .  S
C1590      H1598   1.084       .  S
C1599      C1600   1.409       .  A
C1599      C1604   1.409       .  A
C1600      C1601   1.400       .  A
C1600      H1613   1.083       .  S
C1601      C1602   1.400       .  A
C1601      H1614   1.083       .  S
C1602      C1603   1.401       .  A
C1602      C1605   1.444       .  S
C1603      C1604   1.400       .  A
C1603      H1615   1.084       .  S
C1604      H1616   1.083       .  S
C1605      C1606   1.209       .  T
C1606      C1607   1.444       .  S
C1607      C1608   1.400       .  A
C1607      C1612   1.403       .  A
C1608      C1609   1.397       .  A
C1608      H1617   1.083       .  S
C1609      C1610   1.405       .  A
C1609      H1618   1.083       .  S
C1610      C1611   1.406       .  A
C1611      C1612   1.402       .  A
C1611      H1619   1.083       .  S
C1612      H1620   1.083       .  S
